  22
        -34.23936178
 N         -3.1644675552        0.8515717739        1.5067884686
 C         -3.1845523972        1.9527319030        0.5053882594
 C         -2.5117826299        1.5450544342       -0.8028675690
 C         -1.1059459823        1.0601159916       -0.6038281053
 C         -0.8475333997       -0.2912004656       -0.4192873141
 C          0.4426090600       -0.7378914890       -0.1930303187
 C          1.4863802890        0.1618051159       -0.1426338241
 Br         3.2488948679       -0.4490884300        0.1685653095
 C          1.2421308502        1.5079498812       -0.3158432033
 C         -0.0479641900        1.9566756345       -0.5418085443
 Cl        -3.9370777063       -2.0996947501       -0.1880731350
 H         -3.7178040604        1.0723345199        2.3511567843
 H         -2.1989485617        0.6481095694        1.8083752357
 H         -3.5389022954       -0.0230792262        1.0932244002
 H         -2.6803670835        2.8315068882        0.9251782676
 H         -4.2202082889        2.2644156164        0.3193833803
 H         -2.5107536318        2.3797042147       -1.5143252786
 H         -3.0952746211        0.7517316693       -1.2841731178
 H         -1.6674291240       -0.9906350798       -0.4398194100
 H          0.6457959007       -1.7875353512       -0.0502284461
 H          2.0669919523        2.2014177201       -0.2705032048
 H         -0.2409907089        3.0095349622       -0.6680426222
  22
        -34.23926424
 N         -3.3245374183        0.9757743219       -0.9906286264
 C         -3.2117997253        1.9724925643        0.1091763818
 C         -2.3760952470        1.4443377262        1.2723495216
 C         -1.0116134363        0.9900989613        0.8445851213
 C          0.0314606655        1.8972225473        0.7203648830
 C          1.2779555105        1.4807058501        0.2848071322
 C          1.4920165696        0.1568476500       -0.0368561465
 Br         3.1945210432       -0.4098621487       -0.6341715845
 C          0.4613307531       -0.7524244944        0.0738207356
 C         -0.7852334233       -0.3378915312        0.5088087472
 Cl        -3.8875076263       -2.1352459688        0.4917327806
 H         -2.4063705829        0.8124811138       -1.4326704996
 H         -3.9813402260        1.2733286034       -1.7304987082
 H         -3.6451708775        0.0609884746       -0.6210227344
 H         -4.2135765818        2.2539145239        0.4574818958
 H         -2.7637583763        2.8935021822       -0.2831511071
 H         -2.8964855428        0.6043514510        1.7467336725
 H         -2.2764743759        2.2060709426        2.0551313082
 H         -0.1392134473        2.9330809937        0.9632142135
 H          2.0914903433        2.1824792438        0.1894564534
 H          0.6398803214       -1.7838226546       -0.1863251320
 H         -1.5979096585       -1.0431952950        0.5766023810
  22
        -34.23918183
 N         -3.1666434917        0.8545578161        1.5085283408
 C         -3.1859203339        1.9522118642        0.5032763795
 C         -2.5134727596        1.5394153496       -0.8035623176
 C         -1.1072594248        1.0560787253       -0.6033358429
 C         -0.0499802655        1.9534521439       -0.5462931914
 C          1.2408576885        1.5064690318       -0.3207776965
 C          1.4863813986        0.1611044497       -0.1431064048
 Br         3.2496430021       -0.4477087555        0.1678593233
 C          0.4432285025       -0.7395190162       -0.1887804800
 C         -0.8475541180       -0.2946260250       -0.4144950554
 Cl        -3.9350528579       -2.0966789534       -0.1861083476
 H         -2.2013097567        0.6528257153        1.8127341297
 H         -3.5380843176       -0.0180236025        1.0986060881
 H         -3.7240695475        1.0780263598        2.3543818048
 H         -2.6809547991        2.8320471248        0.9198533223
 H         -4.2213312700        2.2641250236        0.3162972094
 H         -2.5132121209        2.3712125423       -1.5183877980
 H         -3.0966899483        0.7438635779       -1.2814736621
 H         -0.2440012089        3.0053391097       -0.6766976552
 H          2.0653144800        2.2007464331       -0.2789790042
 H          0.6474322224       -1.7885268389       -0.0431158075
 H         -1.6671362084       -0.9949486343       -0.4326093377
  22
        -34.23909809
 N         -3.1658204422        0.8535164731        1.5069940006
 C         -3.1854712242        1.9537052384        0.5045181976
 C         -2.5121400190        1.5447219472       -0.8030232041
 C         -1.1065156501        1.0595636865       -0.6029999052
 C         -0.8477442661       -0.2919476428       -0.4203316213
 C          0.4425460909       -0.7385001162       -0.1946461837
 C          1.4860331150        0.1614561544       -0.1428029800
 Br         3.2486378278       -0.4494255161        0.1678831243
 C          1.2413873500        1.5077743716       -0.3140927812
 C         -0.0488113507        1.9563331268       -0.5397202478
 Cl        -3.9343233780       -2.0992565239       -0.1869746070
 H         -2.2003746397        0.6510177925        1.8103386034
 H         -3.5379913237       -0.0181113321        1.0956792768
 H         -3.7229620646        1.0754967375        2.3534207522
 H         -2.6813955708        2.8327970645        0.9237400214
 H         -4.2209850110        2.2654291635        0.3177553299
 H         -2.5104870456        2.3787858768       -1.5152018177
 H         -3.0956404698        0.7511809070       -1.2839414243
 H         -1.6672229631       -0.9918132694       -0.4428095525
 H          0.6461830702       -1.7882782963       -0.0535221076
 H          2.0659513689        2.2014888295       -0.2672589809
 H         -0.2423178899        3.0092289045       -0.6650643660
  22
        -34.23899947
 N         -3.1620994377        0.8575721353        1.5049264614
 C         -3.1848037777        1.9565253623        0.5012145490
 C         -2.5124788793        1.5469665802       -0.8066263015
 C         -1.1070882677        1.0612126318       -0.6065907128
 C         -0.8484056824       -0.2912584031       -0.4309191487
 C          0.4413729127       -0.7388114539       -0.2041877914
 C          1.4843276445        0.1612418086       -0.1439371511
 Br         3.2463382855       -0.4502535062        0.1689345831
 C          1.2397507154        1.5084334955       -0.3080656823
 C         -0.0499291120        1.9579176668       -0.5349492135
 Cl        -3.9286407969       -2.1027670061       -0.1806595560
 H         -2.1957114389        0.6561124271        1.8059445785
 H         -3.5338400156       -0.0148749791        1.0949593694
 H         -3.7168765673        1.0795269132        2.3529238053
 H         -2.6815153933        2.8368432632        0.9188194956
 H         -4.2210822268        2.2663941954        0.3155711690
 H         -2.5107182892        2.3807267103       -1.5191718514
 H         -3.0966438759        0.7535855039       -1.2870275577
 H         -1.6675655593       -0.9912945786       -0.4584691204
 H          0.6445842714       -1.7893596657       -0.0684015567
 H          2.0639704359        2.2021014056       -0.2545677073
 H         -0.2432191008        3.0115300369       -0.6543925674
  22
        -34.23885825
 N         -3.3245355777        0.9732561892       -0.9963027794
 C         -3.2140728037        1.9732465222        0.1007869180
 C         -2.3779137396        1.4496151718        1.2656972710
 C         -1.0135978442        0.9937401322        0.8391952933
 C          0.0272827310        1.9017113169        0.7033945572
 C          1.2737071257        1.4833930620        0.2693806239
 C          1.4900248857        0.1567231471       -0.0389283297
 Br         3.1924578121       -0.4127401348       -0.6337962791
 C          0.4615178620       -0.7535198491        0.0833518860
 C         -0.7850130581       -0.3371419758        0.5166312687
 Cl        -3.8770995807       -2.1337348231        0.5076997425
 H         -3.9823160574        1.2670946182       -1.7371370764
 H         -3.6413741935        0.0625895431       -0.6252474025
 H         -2.4025268335        0.8102900347       -1.4397768999
 H         -4.2164626210        2.2539578988        0.4479183881
 H         -2.7674103430        2.8938771885       -0.2940046798
 H         -2.8981598531        0.6114005992        1.7433830287
 H         -2.2780097546        2.2142970334        2.0455560644
 H         -0.1451021099        2.9396312690        0.9360263680
 H          2.0855052271        2.1858678239        0.1649492331
 H          0.6417985126       -1.7873020353       -0.1659314431
 H         -1.5957319318       -1.0437020120        0.5941171773
  22
        -34.23392781
 N         -3.9370278146        0.7091113466        0.2248674903
 C         -3.5033089973        2.1294002258        0.1268488254
 C         -2.4640599186        2.3416888349       -0.9705075379
 C         -1.2176392454        1.5323809029       -0.7610487261
 C         -0.9723609268        0.3947686170       -1.5185865353
 C          0.1698778497       -0.3588717989       -1.3085661265
 C          1.0739929736        0.0116857504       -0.3355452365
 Br         2.6277246941       -1.0255170493       -0.0421457568
 C          0.8391484340        1.1358036364        0.4277260154
 C         -0.3012765726        1.8920439871        0.2176719156
 Cl        -1.4977885501       -1.4649143484        1.4983759580
 H         -4.2837817684        0.3645181306       -0.6841838733
 H         -4.6924891297        0.5806064516        0.9176847128
 H         -3.1503062427        0.0950306729        0.5089952153
 H         -3.0937879421        2.4501731071        1.0921694185
 H         -4.3782758952        2.7677198417       -0.0506073338
 H         -2.1926988562        3.4019253980       -1.0440746929
 H         -2.9005692691        2.0836204643       -1.9420529558
 H         -1.6819221730        0.0998150201       -2.2739228242
 H          0.3634417669       -1.2423996627       -1.8961918845
 H          1.5522058231        1.4127837115        1.1880700636
 H         -0.4869500236        2.7689660959        0.8161919288
  22
        -34.23362319
 N         -3.9365950521        0.7000423618        0.2105833003
 C         -3.5055693982        2.1220466387        0.1262531971
 C         -2.4629001789        2.3459592440       -0.9655048529
 C         -1.2163038357        1.5362349455       -0.7589854849
 C         -0.9757805308        0.3959017907       -1.5139139749
 C          0.1655267909       -0.3594865647       -1.3051712729
 C          1.0733453365        0.0119886727       -0.3359608767
 Br         2.6252876489       -1.0281733554       -0.0435958342
 C          0.8432831720        1.1389351991        0.4246085798
 C         -0.2962584322        1.8968888388        0.2159215325
 Cl        -1.4926455479       -1.4579371023        1.5048702119
 H         -3.1527627309        0.0887639885        0.4940105041
 H         -4.2762879615        0.3616899547       -0.7031715354
 H         -4.6992954044        0.5634637845        0.9002402596
 H         -3.1000770270        2.4351919230        1.0957743816
 H         -4.3812071279        2.7600904578       -0.0487120738
 H         -2.1928702958        3.4072224818       -1.0283493090
 H         -2.8954966141        2.0961959270       -1.9409555895
 H         -1.6887087574        0.0998975783       -2.2656604910
 H          0.3552166332       -1.2454232115       -1.8904290273
 H          1.5594144462        1.4168453355        1.1817135545
 H         -0.4783266134        2.7759845848        0.8123643270
  22
        -34.23317282
 N         -4.4479937347        1.2842956400        0.1045185929
 C         -3.0048209755        1.1754999411       -0.2444514571
 C         -2.1915571696        0.5303454998        0.8710974525
 C         -0.7366605224        0.3928615655        0.5269629368
 C         -0.2655356396       -0.7476249310       -0.1092735081
 C          1.0701166325       -0.8597834675       -0.4561916465
 C          1.9460784407        0.1680902757       -0.1772018725
 Br         3.7702216355        0.0132012300       -0.6515579102
 C          1.4888543282        1.3099970378        0.4461181974
 C          0.1536862853        1.4242868204        0.7939108233
 Cl        -5.5827213850       -1.9277334452        0.7966586867
 H         -5.0045642642        1.7054487141       -0.6573268984
 H         -4.5827724862        1.8621543572        0.9489191220
 H         -4.8456153153        0.3470405776        0.3062727418
 H         -2.5997597164        2.1688655687       -0.4718290141
 H         -2.8888726915        0.5948162855       -1.1676862594
 H         -2.6055081006       -0.4564057067        1.1078335334
 H         -2.2963004591        1.1145774668        1.7923531632
 H         -0.9520380863       -1.5471120385       -0.3345493566
 H          1.4396226520       -1.7457912958       -0.9480563603
 H          2.1833555508        2.1083652714        0.6550214496
 H         -0.2057699068        2.3200674994        1.2736321357
  22
        -34.23300414
 N         -4.4205784916        1.1807448596        0.7551463853
 C         -2.9335493080        1.1276859611        0.8019910228
 C         -2.3455911419        0.4359061633       -0.4218751657
 C         -0.8474018465        0.3492062659       -0.3790176267
 C         -0.0639425760        1.3635965680       -0.9123700072
 C          1.3172365307        1.2973519437       -0.8427360455
 C          1.9285955178        0.2213707604       -0.2343045013
 Br         3.8153146868        0.1323799171       -0.1402229040
 C          1.1614614481       -0.7883121606        0.3074809799
 C         -0.2197615234       -0.7242145173        0.2388411567
 Cl        -5.5278122718       -2.1005130279        0.4558749302
 H         -4.8234338224        1.6301461514        1.5937670812
 H         -4.8145273766        0.2275887447        0.6871525830
 H         -4.7485699116        1.7081770750       -0.0743099451
 H         -2.6092926584        0.6062156281        1.7106567470
 H         -2.5258729886        2.1422831283        0.8865610992
 H         -2.6566272356        0.9626385787       -1.3311282780
 H         -2.7663726363       -0.5717298125       -0.5153160964
 H         -0.5421329389        2.2080861956       -1.3807020234
 H          1.9285397018        2.0826030613       -1.2587746125
 H          1.6517134123       -1.6223449214        0.7843493481
 H         -0.8200752327       -1.5095263719        0.6686264051
  22
        -34.23292216
 N         -4.3584573330        1.1577445049        1.0541252140
 C         -2.8785348173        0.9997490289        1.0896177965
 C         -2.3016473890        0.6868976918       -0.2856371734
 C         -0.8121702915        0.4999411862       -0.2639797819
 C         -0.2608297937       -0.7515402008       -0.0247902355
 C          1.1126159066       -0.9176751976        0.0288966345
 C          1.9479200082        0.1650202574       -0.1492425319
 Br         3.8237876082       -0.0634946708       -0.0757597417
 C          1.4126896340        1.4149883110       -0.3786212615
 C          0.0395989939        1.5834335090       -0.4325805303
 Cl        -5.6746078275       -1.7973532649       -0.2163938651
 H         -4.7537441175        1.3541554295        1.9882919716
 H         -4.8066205835        0.2977832232        0.6963557182
 H         -4.6353106889        1.9329320638        0.4246540062
 H         -2.6069868190        0.2031019989        1.7927140046
 H         -2.4151378609        1.9105643554        1.4876995032
 H         -2.5601983530        1.4878563465       -0.9874465472
 H         -2.7765454254       -0.2141767238       -0.6901423728
 H         -0.9141951307       -1.5957493797        0.1222273187
 H          1.5438562032       -1.8893176388        0.2116015643
 H          2.0769308447        2.2542222152       -0.5121958017
 H         -0.3794639707        2.5616338913       -0.6036798182
  22
        -34.23164836
 N         -3.1167603129        0.4166204126        0.7595773826
 C         -3.1865036165        0.8053485299       -0.6748406044
 C         -2.1175848916        1.8312577998       -1.0400461291
 C         -0.7272533693        1.3167239800       -0.8063894715
 C         -0.1375217521        0.4470592435       -1.7134325353
 C          1.1256050069       -0.0681400687       -1.4770741155
 C          1.8092967262        0.2755885339       -0.3299458054
 Br         3.5326452750       -0.4326621780       -0.0059063038
 C          1.2325826539        1.1341511136        0.5819634191
 C         -0.0301108036        1.6508830579        0.3472268820
 Cl        -5.5073685766       -1.9807463938        1.5481491775
 H         -3.2569258996        1.2350683977        1.3727637722
 H         -2.1919888873        0.0198245701        0.9865099072
 H         -3.8332388258       -0.2933439964        1.0090179880
 H         -4.1871235013        1.1936868623       -0.9027103435
 H         -3.0654864583       -0.0888015696       -1.2983363278
 H         -2.2676739077        2.7437336993       -0.4520724938
 H         -2.2166126785        2.1371100547       -2.0887008627
 H         -0.6757958699        0.1718461800       -2.6054361187
 H          1.5866151611       -0.7428561964       -2.1810907875
 H          1.7766869120        1.3928476484        1.4766099834
 H         -0.4838110290        2.3147970040        1.0649615323
  22
        -34.23152684
 N         -3.1987974907        0.2276454516       -0.4545276435
 C         -3.0930509627        1.0388989096        0.7882068769
 C         -2.0057635925        2.1043559400        0.6833092977
 C         -0.6465729080        1.5139523695        0.4459272908
 C          0.0827312480        0.9801064113        1.4995221956
 C          1.3163682607        0.3925645553        1.2765848135
 C          1.8303091538        0.3264580557       -0.0013128673
 Br         3.5134773031       -0.4804070945       -0.3053391808
 C          1.1131297986        0.8471771274       -1.0576402052
 C         -0.1199570834        1.4363086795       -0.8366808305
 Cl        -5.6153119817       -2.2496812431       -0.1558689069
 H         -3.9243968131       -0.5066935124       -0.3809304305
 H         -2.3029116355       -0.2386267167       -0.6646287629
 H         -3.4332305232        0.8234347587       -1.2692773126
 H         -2.8776223866        0.3767098922        1.6353846561
 H         -4.0638311593        1.4999681203        1.0102118175
 H         -1.9775123311        2.7190099783        1.5912846593
 H         -2.2454599461        2.7957201940       -0.1324405822
 H         -0.3233339376        1.0239373136        2.4966989425
 H          1.8860280344       -0.0208876173        2.0938897088
 H          1.5248591076        0.7864448229       -2.0527152742
 H         -0.6832789875        1.8362634725       -1.6640200734
  22
        -34.23144403
 N         -3.1406512107       -0.0746617645        0.7762356592
 C         -3.1309106646        1.2041622035        0.0159664039
 C         -2.0228817472        2.1404198985        0.4894211113
 C         -0.6573206087        1.5398782105        0.3251858506
 C         -0.0101665522        0.9415994620        1.3981280657
 C          1.2279825479        0.3452510718        1.2305844254
 C          1.8294438828        0.3365106213       -0.0102185190
 Br         3.5189075704       -0.4821996927       -0.2383701821
 C          1.1952007583        0.9229077371       -1.0850407901
 C         -0.0432966146        1.5190717645       -0.9197671275
 Cl        -5.6214417778       -2.2192305700       -0.3744836410
 H         -3.8818320516       -0.7184372267        0.4484205601
 H         -3.2922775054        0.0936131907        1.7830634011
 H         -2.2337973380       -0.5658986483        0.6803486991
 H         -4.1102776379        1.6913195074        0.1026396716
 H         -2.9988663441        0.9895497898       -1.0514693058
 H         -2.1809165785        2.3933651058        1.5438946538
 H         -2.0640807260        3.0937969956       -0.0513440709
 H         -0.4834296847        0.9402778832        2.3661939599
 H          1.7332705265       -0.1195857874        2.0624805059
 H          1.6749218988        0.9066316573       -2.0509330392
 H         -0.5440385259        1.9688184152       -1.7616612891
