22
 energy: -34.932411022293 gnorm: 0.000585070795 xtb: 6.5.1 (fef0646)
N            1.15081667606701        0.37370426171333        0.34860860322107
C            2.60535889355657        0.51352919287837        0.33377689631005
C            3.09101147238260        0.75706170320957       -1.09878981821230
C            4.59215802874982        0.76090708422889       -1.14732167665807
C            5.28879885318730       -0.43886356419233       -1.23651307006039
C            6.67108604489101       -0.45895713581161       -1.24520974744050
C            7.35250079977915        0.74165361516775       -1.16150484381509
F            8.70276805136035        0.73292358547215       -1.16859451240116
C            6.68947491577426        1.95095772923968       -1.07198341998985
C            5.30590920839602        1.94945467033402       -1.06356107276399
Cl           0.39945089863569       -1.84702480506226       -1.42279641621084
H            0.80863275861223        0.17449459296922        1.28240469734222
H            0.74307836716848       -0.81261454215807       -0.59192264577479
H            0.70324471445583        1.21860945100240        0.00822586799485
H            3.03126204733695       -0.42041155974863        0.70686907892388
H            2.95405696834294        1.33002318151907        0.98191142836872
H            2.70113557062299        1.71270518337140       -1.45404074744920
H            2.69537348475908       -0.03551530242722       -1.73349010620995
H            4.74087475562637       -1.36644094232740       -1.30648314797354
H            7.22098952767392       -1.38382406657616       -1.31752666594921
H            7.25225047241963        2.86899019929693       -1.01164582815426
H            4.77653749020167        2.88868746790124       -0.99699285309715
