  39
        -62.15257215
 N         -7.7434949152       -1.5756291799       -1.2046204895
 C         -8.1937264087       -0.2242932840       -0.7671251306
 C         -7.5289016658        0.2055430739        0.5396018896
 C         -6.0694585299        0.4528088091        0.3898947225
 C         -5.4851958186        1.6693088512        0.1859571420
 C         -4.0816810250        1.6254330648        0.0865612920
 C         -3.5509898333        0.3618056221        0.2102923161
 C         -2.1710318387        0.0286771139        0.1699517856
 C         -1.6372921124       -1.2452469776        0.2971207720
 C         -0.2487989698       -1.2891770408        0.2384731810
 C          0.3512262855       -0.0490987930        0.0628666701
 C          1.7413092174        0.1973287258       -0.0156397856
 C          2.3404161507        1.4370277267       -0.1956557328
 C          3.7299982618        1.3972261514       -0.2250277677
 C          4.2651607889        0.1269475581       -0.0692491540
 C          5.6486111988       -0.1959838497       -0.0521037925
 C          6.1874627420       -1.4537578268        0.1041492074
 C          7.5950955960       -1.4753173297        0.0850666306
 C          8.1565879978       -0.2489079705       -0.0849328338
 S          6.9455536800        0.9601598586       -0.2259343565
 S          2.9764423402       -1.0242683814        0.1069529207
 S         -0.8810981758        1.1749064058       -0.0409023471
 S         -4.8504460342       -0.7821349659        0.4342009914
 H         -8.0927599381       -1.8214958630       -2.1437707109
 H         -8.0639520295       -2.3034420813       -0.5483342565
 H         -6.7113986668       -1.6142985845       -1.2213563142
 H         -9.2858634483       -0.2238421212       -0.6656208350
 H         -7.9647159714        0.5084446179       -1.5495414193
 H         -7.6807772648       -0.5682683781        1.2989961384
 H         -8.0058334117        1.1089874886        0.9353734258
 H         -6.0523699183        2.5845545274        0.1173900846
 H         -3.4689948018        2.5002619651       -0.0628575714
 H         -2.2540660795       -2.1190481073        0.4372578775
 H          0.3214477863       -2.2000141545        0.3270018321
 H          1.7694985879        2.3460468521       -0.2984181818
 H          4.3467755466        2.2726893116       -0.3532370209
 H          5.5798346852       -2.3360282049        0.2307444468
 H          8.1726767887       -2.3814922545        0.1960188569
 H          9.2100080447       -0.0451226282       -0.1273981625
