  13
        -20.28348866
 N          0.1634719005       -1.2413660738        0.8838761840
 C          1.0000439119       -1.4702712759       -0.3236875279
 C          1.3636563137       -0.1586996917       -1.0129614085
 C          2.0571390963        0.7367274279       -0.1533919885
 N          2.6031489435        1.4421800124        0.5880189296
 Cl        -2.7236671946        0.4408009927       -0.0548784319
 H         -0.0843564776       -2.1209502378        1.3643306570
 H         -0.7167069009       -0.7533148560        0.6329738161
 H          0.6612404365       -0.6404694943        1.5581993882
 H          0.4751222819       -2.1396230573       -1.0170784643
 H          1.9167325438       -1.9968917555       -0.0317208947
 H          0.4513746304        0.3343178248       -1.3685318980
 H          1.9719023241       -0.3462503207       -1.9060133550
