  19
        -24.34102735
 N          0.1251113803        1.1308798650       -0.5019553486
 C         -0.7538405339        0.5696875140        0.5679004736
 C         -2.2238447983        1.0026216657        0.3729335332
 C         -2.9095155271       -0.1259012164       -0.4271860951
 C         -2.0007729293       -1.3762460424       -0.3222503130
 C         -0.7715172018       -0.9755342098        0.5237116302
 Cl         3.3454464075       -0.1677161815       -0.0256139729
 H          1.0956296347        0.7973181688       -0.3950350037
 H          0.1327523839        2.1626539105       -0.4845662727
 H         -0.2094210090        0.8314858637       -1.4269989922
 H         -0.3815813953        0.9167546435        1.5454136964
 H         -2.2791150345        1.9641725115       -0.1482156080
 H         -2.7135120970        1.1432657853        1.3434827053
 H         -3.0387108884        0.1699533406       -1.4756374645
 H         -3.9181609358       -0.3282928341       -0.0465313478
 H         -1.6901936381       -1.7127878781       -1.3187322445
 H         -2.5335164029       -2.2234979885        0.1274207294
 H          0.1607999324       -1.3615252834        0.0973313991
 H         -0.8461857220       -1.3866127103        1.5368190882
