  19
        -24.34102735
 N          0.1251113803        1.1308798650       -0.5019553486
 C         -0.7538405339        0.5696875140        0.5679004736
 C         -2.2238447983        1.0026216657        0.3729335332
 C         -2.9095155271       -0.1259012164       -0.4271860951
 C         -2.0007729293       -1.3762460424       -0.3222503130
 C         -0.7715172018       -0.9755342098        0.5237116302
 Cl         3.3454464075       -0.1677161815       -0.0256139729
 H          1.0956296347        0.7973181688       -0.3950350037
 H          0.1327523839        2.1626539105       -0.4845662727
 H         -0.2094210090        0.8314858637       -1.4269989922
 H         -0.3815813953        0.9167546435        1.5454136964
 H         -2.2791150345        1.9641725115       -0.1482156080
 H         -2.7135120970        1.1432657853        1.3434827053
 H         -3.0387108884        0.1699533406       -1.4756374645
 H         -3.9181609358       -0.3282928341       -0.0465313478
 H         -1.6901936381       -1.7127878781       -1.3187322445
 H         -2.5335164029       -2.2234979885        0.1274207294
 H          0.1607999324       -1.3615252834        0.0973313991
 H         -0.8461857220       -1.3866127103        1.5368190882
  19
        -24.34019496
 N          0.6822749125       -1.0476103850       -0.4405134533
 C         -0.4704593411       -0.7562811608        0.4645890075
 C         -1.0921943589        0.6309305382        0.1541718121
 C         -2.4960265525        0.3729517552       -0.4269878663
 C         -2.9139717788       -1.0190678199        0.0801497989
 C         -1.6035613780       -1.8030778419        0.2958302129
 Cl         3.0514044555        1.4999240065        0.0000627128
 H          1.0906859443       -1.9713234668       -0.2446470521
 H          1.4241618752       -0.3342898276       -0.3346835723
 H          0.3755266413       -1.0370341132       -1.4218399548
 H         -0.1109901983       -0.7696470798        1.5059267511
 H         -0.4590850985        1.1861522331       -0.5457923897
 H         -1.1558086123        1.2400118948        1.0632497775
 H         -2.4649548587        0.3842794375       -1.5230994399
 H         -3.2111786409        1.1500128278       -0.1295283953
 H         -3.5834044403       -1.5280742998       -0.6244503612
 H         -3.4665497949       -0.9299005157        1.0231293216
 H         -1.3858354352       -2.4336463208       -0.5721759151
 H         -1.6660835224       -2.4775121768        1.1576522405
  19
        -24.34008108
 N          0.6846931144       -1.0320117372       -0.4901059929
 C         -0.4640958982       -0.7693861573        0.4286536076
 C         -1.0898535809        0.6257800978        0.1636386584
 C         -2.5097363922        0.3850271625       -0.3861698517
 C         -2.9129993091       -1.0241332488        0.0842389379
 C         -1.5964724929       -1.8122472168        0.2357573574
 Cl         3.0492723821        1.5000999995        0.0394294006
 H          1.4244539973       -0.3237992975       -0.3654897968
 H          0.3731972190       -0.9913629015       -1.4721556004
 H          1.0943456736       -1.9610397211       -0.3242332612
 H         -0.0999119593       -0.8132306561        1.4675164817
 H         -0.4733575514        1.1935226653       -0.5410732935
 H         -1.1267003723        1.2163077328        1.0863416510
 H         -2.5098875540        0.4337342182       -1.4817174059
 H         -3.2166958903        1.1504193919       -0.0424805745
 H         -3.6014082075       -1.5096656817       -0.6186497546
 H         -3.4389008361       -0.9686902513        1.0448834904
 H         -1.3953676670       -2.4007776794       -0.6651516696
 H         -1.6383073738       -2.5260722295        1.0665556514
  19
        -24.34002088
 N          0.3343917088        1.3924646000        1.1766935305
 C         -1.0631962560        0.8662660997        1.1277480856
 C         -1.6627066327        0.9965312913       -0.2903522780
 C         -1.4117885513       -0.3522501256       -0.9992628442
 C         -1.0563376212       -1.3856747380        0.0987109198
 C         -1.1050160851       -0.6444724040        1.4531060999
 Cl         2.3017382841       -0.4373915643       -1.0820138663
 H          0.3710158632        2.3880857070        0.9200549485
 H          0.9279993549        0.8714913839        0.5100390328
 H          0.7444310407        1.2843064765        2.1140945235
 H         -1.6753257137        1.4279020265        1.8518814456
 H         -1.2040430415        1.8318590499       -0.8298619865
 H         -2.7360475422        1.2116865324       -0.2337842947
 H         -0.5923312095       -0.2604972537       -1.7228721009
 H         -2.2887365089       -0.6665698715       -1.5783416197
 H         -0.0577751835       -1.8045981853       -0.0746671164
 H         -1.7456004319       -2.2392597645        0.0864397730
 H         -0.2678069388       -0.9246877898        2.1014715820
 H         -2.0218859320       -0.8933830254        1.9992655109
  19
        -24.33998523
 N          0.6900252754       -1.0278066696       -0.5037905722
 C         -0.4633970992       -0.7753628656        0.4119838486
 C         -1.0887153500        0.6228437730        0.1605988771
 C         -2.5197332432        0.3900166112       -0.3644505946
 C         -2.9141176193       -1.0269258069        0.0899424242
 C         -1.5946363137       -1.8158525169        0.2035697987
 Cl         3.0496044672        1.5019731911        0.0551435019
 H          0.3842929300       -0.9781380490       -1.4841995342
 H          1.1011769271       -1.9605080060       -0.3444863641
 H          1.4282951672       -0.3199492490       -0.3686853399
 H         -0.1047581529       -0.8308802975        1.4522005422
 H         -0.4826084698        1.1889986240       -0.5543046131
 H         -1.1054946970        1.2123659429        1.0845354697
 H         -2.5421860045        0.4569693647       -1.4588203947
 H         -3.2197306758        1.1493466872        0.0058803537
 H         -3.6150751700       -1.5011531944       -0.6082583675
 H         -3.4219555950       -0.9881837975        1.0610594066
 H         -1.4030839502       -2.3781012200       -0.7160021229
 H         -1.6245098701       -2.5527492574        1.0145123551
  19
        -24.33990531
 N          0.2320406114        1.2166916901       -0.5147990510
 C         -0.7480786437        0.5360883025        0.3847404229
 C         -2.1957656744        1.0249196639        0.1246823326
 C         -3.0824962496       -0.2313855599        0.0278994411
 C         -2.1418367737       -1.3803334519       -0.3780527465
 C         -0.7474410045       -1.0010965279        0.1624162340
 Cl         3.3939496869       -0.1527557319        0.1309392692
 H          0.2297774711        2.2355851076       -0.3718783787
 H         -0.0011459445        1.0326211822       -1.5021252577
 H          1.1882178549        0.8671469848       -0.3478470197
 H         -0.4740058774        0.7509301995        1.4299449348
 H         -2.2237762909        1.5874341674       -0.8137236674
 H         -2.5400604241        1.7124049056        0.9063246360
 H         -3.9019725508       -0.0992529297       -0.6901257558
 H         -3.5499171880       -0.4455194386        0.9961171615
 H         -2.1155303989       -1.4806180535       -1.4694095238
 H         -2.4827965066       -2.3474295030        0.0128824767
 H          0.0476983077       -1.2854427532       -0.5350314830
 H         -0.5375654713       -1.5286791680        1.0997039087
  19
        -24.33985869
 N          0.6960414501       -1.0194545786       -0.5294690778
 C         -0.4621315939       -0.7844521651        0.3849398307
 C         -1.0872732984        0.6184656428        0.1586967197
 C         -2.5339731054        0.3976664936       -0.3292133360
 C         -2.9151662702       -1.0317857551        0.0966349979
 C         -1.5922212152       -1.8202943049        0.1531030066
 Cl         3.0508323413        1.5034801873        0.0816593337
 H          1.4331228147       -0.3137533075       -0.3777194799
 H          0.3947770625       -0.9522166613       -1.5132201462
 H          1.1056289335       -1.9520740642       -0.3851474436
 H         -0.1095223583       -0.8600838570        1.4259350582
 H         -0.4977483861        1.1850408412       -0.5695625316
 H         -1.0741764192        1.2033706076        1.0856204658
 H         -2.5896508949        0.4949544574       -1.4201458504
 H         -3.2228320289        1.1456972815        0.0826408652
 H         -3.6338289609       -1.4879406882       -0.5955931926
 H         -3.3966967822       -1.0210212501        1.0817548249
 H         -1.4156690902       -2.3420375418       -0.7929404723
 H         -1.6046932631       -2.5908209955        0.9326449687
  19
        -24.33981302
 N          0.6963785335       -1.0117718868       -0.5504377659
 C         -0.4598807239       -0.7889822846        0.3693972053
 C         -1.0863389411        0.6164756085        0.1629715103
 C         -2.5388007041        0.4017208005       -0.3109430546
 C         -2.9142762786       -1.0344327036        0.0971827510
 C         -1.5900894455       -1.8221057123        0.1274919029
 Cl         3.0501337734        1.5024404871        0.0983424304
 H          0.3940168627       -0.9316203654       -1.5298586251
 H          1.1074629941       -1.9488229955       -0.4190592551
 H          1.4336469570       -0.3080660913       -0.3905270796
 H         -0.1050580052       -0.8779128407        1.4085813839
 H         -0.5044332344        1.1890051564       -0.5667500818
 H         -1.0618835635        1.1930988954        1.0948385057
 H         -2.6076562955        0.5157472045       -1.3995086486
 H         -3.2232072628        1.1427692760        0.1204852701
 H         -3.6398363877       -1.4807698303       -0.5942520330
 H         -3.3852056380       -1.0392766816        1.0874596288
 H         -1.4208594668       -2.3254865211       -0.8297652813
 H         -1.5948265365       -2.6072297836        0.8924226793
  19
        -24.33981096
 N          0.3826660290        1.4385709311        1.2003118303
 C         -0.9749011978        0.8386025963        1.0278127084
 C         -1.4700005154        0.9760519253       -0.4355327075
 C         -1.9568814639       -0.4168103764       -0.8803145481
 C         -1.2413005975       -1.4263499053        0.0349705678
 C         -0.9646024245       -0.6793275761        1.3553866406
 Cl         2.4023160770       -0.3870242630       -0.9833544523
 H          0.7159885136        1.3446261537        2.1689653090
 H          0.3880329049        2.4389020850        0.9482924145
 H          1.0526739435        0.9526726701        0.5864498671
 H         -1.6770719701        1.3535440871        1.7025494382
 H         -0.6406235871        1.3111503230       -1.0663358649
 H         -2.2550075268        1.7355680428       -0.5302746621
 H         -1.7461614824       -0.6041584097       -1.9409970364
 H         -3.0435581586       -0.4987436061       -0.7609677978
 H         -0.3011974460       -1.7540834147       -0.4239796061
 H         -1.8400469925       -2.3320690617        0.1947843573
 H         -0.0023105267       -0.9700917702        1.7900603890
 H         -1.7274923597       -0.9202420552        2.1042086228
  19
        -24.33971469
 N          0.2173243828        1.2770824281       -0.3825589468
 C         -0.7512556447        0.5103283782        0.4582519342
 C         -2.2078402747        1.0007174236        0.2406627205
 C         -2.9943639634       -0.1747755988       -0.3748238781
 C         -2.1998005540       -1.4471019860       -0.0289865989
 C         -0.7312585003       -1.0007923727        0.1101559698
 Cl         3.3888638450       -0.1593080213        0.0363843371
 H         -0.0337947460        1.1992622963       -1.3765884481
 H          1.1766117410        0.9063237851       -0.2696943512
 H          0.2245147349        2.2755072200       -0.1342939833
 H         -0.4779035671        0.6410879096        1.5174579359
 H         -2.2209122639        1.8805005089       -0.4109491828
 H         -2.6576759479        1.3142234466        1.1897795694
 H         -3.0682313434       -0.0587653871       -1.4628258886
 H         -4.0240388568       -0.2193409150        0.0013089369
 H         -2.3199352702       -2.2259060287       -0.7923804266
 H         -2.5599977129       -1.8774881290        0.9130750386
 H         -0.1943622454       -1.1467887695       -0.8326795868
 H         -0.1925534953       -1.5853769575        0.8649288594
  19
        -24.33965973
 N          0.2161387515        1.2802350019       -0.3967748494
 C         -0.7445417938        0.5102855759        0.4501229561
 C         -2.2033932216        0.9997811860        0.2464980327
 C         -2.9937533759       -0.1743932548       -0.3665239755
 C         -2.1951252936       -1.4470986266       -0.0315487095
 C         -0.7259412551       -0.9998225083        0.0974663312
 Cl         3.3810954817       -0.1609758280        0.0467081324
 H          0.2217007684        2.2787856558       -0.1487608526
 H         -0.0413924024        1.2010610543       -1.3920419368
 H          1.1743619122        0.9133884667       -0.2892960975
 H         -0.4622722460        0.6383221286        1.5073124078
 H         -2.2228615974        1.8818416092       -0.4018443912
 H         -2.6455679498        1.3094038264        1.2004910033
 H         -3.0766266104       -0.0546881217       -1.4534789506
 H         -4.0202545729       -0.2212612986        0.0179206002
 H         -2.3205437028       -2.2232653802       -0.7967636749
 H         -2.5473412533       -1.8812660536        0.9117903480
 H         -0.1962648941       -1.1426772128       -0.8499234879
 H         -0.1808451594       -1.5860384758        0.8463274300
  19
        -24.33961201
 N          0.7259983840       -1.1458695752        0.0109878180
 C         -0.5105515725       -0.5861437578        0.6360316869
 C         -1.0667798740        0.6085567447       -0.1795212976
 C         -2.5840331694        0.3841463163       -0.3232315165
 C         -2.8002242347       -1.1328998038       -0.1757790266
 C         -1.6436718349       -1.6459038062        0.7078424479
 Cl         3.0409462151        1.4723280576       -0.2504574320
 H          1.4542635119       -0.4200466828       -0.0738521309
 H          0.5202246742       -1.4975831120       -0.9361476635
 H          1.1081807108       -1.9255119710        0.5630685034
 H         -0.2668221874       -0.2456759328        1.6550247489
 H         -0.5866858929        0.6288904395       -1.1628885596
 H         -0.8352142077        1.5690086274        0.2959767274
 H         -2.9643600616        0.7614621915       -1.2811163163
 H         -3.1268033017        0.9247626456        0.4609245918
 H         -2.7742989983       -1.6161330120       -1.1594736240
 H         -3.7808425122       -1.3673781283        0.2575337679
 H         -1.2769393480       -2.6200575012        0.3674407495
 H         -1.9778178110       -1.7873014878        1.7418929437
  19
        -24.33931447
 N          0.3677567138        1.3784508124        1.2427098529
 C         -0.9364950757        0.7115297591        0.9456965572
 C         -1.3433397055        0.8701991625       -0.5350545862
 C         -2.1288410530       -0.4036020010       -0.9181163318
 C         -1.8424328243       -1.4617444345        0.1773254388
 C         -0.8765795791       -0.8119047457        1.1929136567
 Cl         2.6170396786       -0.2070912978       -0.9099490706
 H          0.6425851456        1.2429508761        2.2243936073
 H          0.3246990085        2.3907405326        1.0503300739
 H          1.1063346713        0.9745862111        0.6487048613
 H         -1.7201164828        1.1491540348        1.5835523315
 H         -0.4401052527        0.9683565958       -1.1456039785
 H         -1.9277294537        1.7830059446       -0.6998374996
 H         -1.8384928860       -0.7655566446       -1.9123557199
 H         -3.2029157515       -0.1901868442       -0.9777812880
 H         -1.4151239289       -2.3775009825       -0.2490857698
 H         -2.7726247491       -1.7659232771        0.6728849493
 H          0.1488191162       -1.1606841693        1.0326798730
 H         -1.1310485246       -1.0655127228        2.2284069576
  19
        -24.33837244
 N          0.7654728728       -0.9551884334       -0.7300546316
 C         -0.4570686009       -0.8228590694        0.1196911854
 C         -1.0732586851        0.5898424850        0.0323340085
 C         -2.5997670117        0.4200562440        0.2029535784
 C         -2.9147393710       -1.0857573698        0.0148583768
 C         -1.5799860547       -1.7886583104       -0.3166960140
 Cl         3.0329723692        1.4978506118        0.3330554665
 H          0.5382359114       -0.7798136023       -1.7172894280
 H          1.1718585167       -1.9007250297       -0.6604600634
 H          1.4826232571       -0.2700711315       -0.4465371018
 H         -0.1908405707       -1.0331356691        1.1673716942
 H         -0.8360924536        1.0236266318       -0.9442317057
 H         -0.6446634150        1.2659078177        0.7815154587
 H         -3.1501406486        1.0380671410       -0.5174064283
 H         -2.9178361540        0.7609160853        1.1956245235
 H         -3.6584301123       -1.2470322639       -0.7750451773
 H         -3.3508762889       -1.5054720078        0.9297006787
 H         -1.4950309811       -1.9762036812       -1.3919059166
 H         -1.4909328632       -2.7638870172        0.1756300135
  19
        -24.33332309
 N          0.0542416729        0.1970593491       -1.7549112442
 C         -0.2076163262       -0.5139749009       -0.4667452797
 C         -0.8118783998        0.4394063464        0.5883742008
 C         -2.3450691568        0.2792457378        0.4980767786
 C         -2.6218045689       -1.0316037376       -0.2797998222
 C         -1.2503311127       -1.6408111784       -0.6464893230
 Cl         2.8324116526        0.8671933375        0.9501004981
 H          0.7251043173        0.9660708567       -1.6244296156
 H         -0.8210609151        0.5993019040       -2.1213535818
 H          0.4314582184       -0.4424988130       -2.4667504920
 H          0.7430174553       -0.9327963558       -0.0986727526
 H         -0.4977590369        1.4719495517        0.4027190111
 H         -0.4525210025        0.1784162162        1.5905229187
 H         -2.7923879796        1.1369998891       -0.0192823495
 H         -2.8024155123        0.2592369451        1.4949025430
 H         -3.2068543451       -0.8274030734       -1.1846068432
 H         -3.2225957621       -1.7321972681        0.3136027175
 H         -1.2349832780       -2.0235607764       -1.6726521503
 H         -1.0144914872       -2.4879854645        0.0074671366
  19
        -24.33330834
 N          0.0818855765        0.7920381087       -1.7647314286
 C         -0.2905319928       -0.2241175522       -0.7336958418
 C         -0.8126878994        0.4451120543        0.5627944709
 C         -2.0830194973       -0.3196966048        0.9796876726
 C         -2.6356069492       -0.9507116746       -0.3111698928
 C         -1.4204414052       -1.1625603080       -1.2389960272
 Cl         2.8175838202        0.4883830667        1.1205023318
 H          0.8127174032        1.4241212046       -1.4122511762
 H         -0.7383559548        1.3636927144       -2.0146589066
 H          0.4287380383        0.3440392011       -2.6228857448
 H          0.6005503991       -0.8264502101       -0.4951274771
 H         -1.0458847942        1.4948005165        0.3589107330
 H         -0.0542373690        0.4463231248        1.3545390610
 H         -2.8173315870        0.3387181401        1.4612008702
 H         -1.8379823636       -1.0988005883        1.7109611638
 H         -3.3629229293       -0.2774831739       -0.7798950362
 H         -3.1675947283       -1.8899835956       -0.1134473188
 H         -1.6653887939       -0.9365554126       -2.2821814094
 H         -1.0937973409       -2.2084605169       -1.2197285753
  19
        -24.33217438
 N         -0.1014154333        1.0934312635       -1.6974922469
 C         -0.3073036392       -0.0778568766       -0.7918776130
 C         -0.7419932288        0.3741478870        0.6275192566
 C         -2.1944013814       -0.1017443627        0.8257067198
 C         -2.3921497251       -1.2740610437       -0.1519860917
 C         -1.4225359271       -1.0170016709       -1.3231718261
 Cl         2.8322285740        0.3018481228        1.1149100465
 H          0.6383395726        1.7129554528       -1.3414452273
 H         -0.9689122901        1.6453460298       -1.7675576155
 H          0.1591869196        0.7909117513       -2.6450694289
 H          0.6390418539       -0.6376127608       -0.7218640643
 H         -0.6540981930        1.4609730317        0.7270501874
 H         -0.0859628562       -0.0599900115        1.3908101470
 H         -2.8977570439        0.7075063329        0.5954937682
 H         -2.3903735310       -0.3959980962        1.8643571244
 H         -3.4321957208       -1.3531036985       -0.4922328149
 H         -2.1541963638       -2.2244261791        0.3406930104
 H         -1.9427940967       -0.5263612514       -2.1520629295
 H         -1.0111365124       -1.9491823400       -1.7273066605
  19
        -24.33182869
 N         -0.4770483026        1.0659352993       -1.8067437378
 C         -0.2719729474       -0.0252129972       -0.8061599943
 C         -0.6941958567        0.4237382276        0.6107690261
 C         -2.1540785494       -0.0417535022        0.8031683697
 C         -2.4467120167       -1.0925412678       -0.2969104975
 C         -1.1533331979       -1.2543565427       -1.1257207815
 Cl         2.8811845674        0.2753898670        1.1664023514
 H         -1.4657933798        1.3450415625       -1.8241480477
 H         -0.2180353111        0.7580910550       -2.7562660473
 H          0.0813388164        1.8974078621       -1.5736258265
 H          0.7925106273       -0.3103848891       -0.8120827689
 H         -0.5937990900        1.5087200205        0.7198881228
 H         -0.0405621571       -0.0283456583        1.3657150714
 H         -2.8439414291        0.8071866355        0.7200374543
 H         -2.3098194693       -0.4568015851        1.8065271108
 H         -3.2741910574       -0.7616113273       -0.9360047170
 H         -2.7657494392       -2.0494488035        0.1349275150
 H         -1.3615103287       -1.3142266114       -2.1994366720
 H         -0.6321870163       -2.1796629210       -0.8552098640
  19
        -24.33164084
 N         -0.5049349832        1.6162142725       -1.3756785887
 C         -0.4455060722        0.7577770644       -0.1536481926
 C         -1.7297129355        0.8964534522        0.6937694140
 C         -2.6738615569       -0.2371762759        0.2412283721
 C         -1.8022293435       -1.2913506391       -0.4856021704
 C         -0.3581310725       -0.7411644462       -0.5231856209
 Cl         3.0039703047       -0.5099772942        0.7460340571
 H         -0.5910508254        2.6112584190       -1.1307038974
 H         -1.3230957937        1.3588410761       -1.9466899964
 H          0.3351317979        1.4983805242       -1.9569652438
 H          0.4344134412        1.0536830453        0.4402129641
 H         -2.1819863251        1.8841261456        0.5551811558
 H         -1.4965340335        0.8045961901        1.7608540674
 H         -3.4462585423        0.1540557473       -0.4323924343
 H         -3.2109896331       -0.6745164301        1.0918328470
 H         -2.1760173254       -1.4698126405       -1.5010844514
 H         -1.8421280140       -2.2627870639        0.0228901351
 H          0.1023257341       -0.8707751117       -1.5085041469
 H          0.2787267120       -1.2745717164        0.1915700686
