  18
        -22.55322409
 N         -2.7322745173       -0.0044532539       -0.6496385363
 C         -1.9148552605        0.0063686090        0.5968799821
 C         -0.4444930563        0.0031641350        0.3220306042
 C          0.2524732046       -1.2016054728        0.1752327794
 C          1.6171503086       -1.2048567115       -0.0996593321
 C          2.3030858728       -0.0034080843       -0.2380167897
 C          1.6219434958        1.2012978996       -0.1039867372
 C          0.2572559622        1.2045660562        0.1710167057
 H         -2.5295175362        0.8206773877       -1.2321244131
 H         -3.7433109876       -0.0026523895       -0.4457753033
 H         -2.5297084484       -0.8395896618       -1.2180272428
 H         -2.1747625332       -0.8615275399        1.2148083631
 H         -2.1741941873        0.8856156509        1.1987984798
 H         -0.2758183347       -2.1351379405        0.2821866259
 H          2.1447676535       -2.1413409705       -0.2030292489
 H          3.3626446749       -0.0059320760       -0.4482343880
 H          2.1533224869        2.1353247421       -0.2105350367
 H         -0.2669529086        2.1405915967        0.2764048980
  18
        -22.55008502
 N         -2.7675492497        0.7415675793        0.1238056419
 C         -1.9357335264       -0.4858769804       -0.0482848520
 C         -0.4543546342       -0.2565052380       -0.0207813633
 C          0.4115731303       -1.3405622822        0.1735054530
 C          1.7921105470       -1.1623205675        0.1805079669
 C          2.3320624980        0.1040052406       -0.0113100528
 C          1.4882194390        1.1902492308       -0.2119077832
 C          0.1074557025        1.0098512159       -0.2187566319
 H         -3.7711272035        0.5112223342        0.1773710422
 H         -2.6505770278        1.3933875138       -0.6655473562
 H         -2.5202417554        1.2385374743        0.9919822138
 H         -2.2036709264       -0.9729666818       -0.9937403015
 H         -2.1963503417       -1.2000411907        0.7425099900
 H         -0.0006814876       -2.3266320282        0.3158376296
 H          2.4448611673       -2.0090864006        0.3324753782
 H          3.4033326357        0.2429366981       -0.0071106984
 H          1.9051801508        2.1745968679       -0.3643069622
 H         -0.5352618345        1.8582058547       -0.3787159250
  18
        -22.54984814
 N         -2.7727062021       -0.7395007949       -0.0396723207
 C         -1.9334360965        0.4872546695        0.0953647441
 C         -0.4527492945        0.2567195217        0.0415855781
 C          0.1008550960       -1.0102011331       -0.1759749151
 C          1.4806831387       -1.1908891883       -0.2245985661
 C          2.3319833092       -0.1049601245       -0.0567393316
 C          1.8002901386        1.1610422824        0.1593462050
 C          0.4205497500        1.3393051959        0.2075074661
 H         -3.7774724621       -0.5153033114        0.0179834646
 H         -2.5690254273       -1.4168032703        0.7098796121
 H         -2.6174403151       -1.2030557647       -0.9468480072
 H         -2.1793132304        0.9820973427        1.0429605677
 H         -2.2098580821        1.1959066377       -0.6949862094
 H         -0.5477345584       -1.8587603213       -0.3079285877
 H          1.8911041219       -2.1753546763       -0.3931702590
 H          3.4025624247       -0.2441566563       -0.0945303674
 H          2.4587929732        2.0070395797        0.2895830253
 H          0.0139679749        2.3239258276        0.3743508629
