  18
        -22.55322409
 N         -2.7322745173       -0.0044532539       -0.6496385363
 C         -1.9148552605        0.0063686090        0.5968799821
 C         -0.4444930563        0.0031641350        0.3220306042
 C          0.2524732046       -1.2016054728        0.1752327794
 C          1.6171503086       -1.2048567115       -0.0996593321
 C          2.3030858728       -0.0034080843       -0.2380167897
 C          1.6219434958        1.2012978996       -0.1039867372
 C          0.2572559622        1.2045660562        0.1710167057
 H         -2.5295175362        0.8206773877       -1.2321244131
 H         -3.7433109876       -0.0026523895       -0.4457753033
 H         -2.5297084484       -0.8395896618       -1.2180272428
 H         -2.1747625332       -0.8615275399        1.2148083631
 H         -2.1741941873        0.8856156509        1.1987984798
 H         -0.2758183347       -2.1351379405        0.2821866259
 H          2.1447676535       -2.1413409705       -0.2030292489
 H          3.3626446749       -0.0059320760       -0.4482343880
 H          2.1533224869        2.1353247421       -0.2105350367
 H         -0.2669529086        2.1405915967        0.2764048980
