36
 energy: -50.868754796730 gnorm: 0.000390021029 xtb: 6.5.1 (fef0646)
N            0.74995583383778        1.44451674605075       -1.73442653567570
C            2.18167530085064        1.59470216709971       -1.99788807335595
C            2.96758393435809        1.08572421945230       -0.79416061583874
C            4.46614742701310        1.13651489792693       -0.92648837434931
C            5.12818932621659        1.56787810344067       -2.06845484912855
C            6.50891975681897        1.59025359637022       -2.12577470652044
C            7.28506508347579        1.17890132048692       -1.04225101923590
C            8.73600925651841        1.18558835425577       -1.05122776451917
C            9.51489717751260        1.81368068858740       -1.94274409108245
C           10.96630265305512        1.83699897364886       -1.94975717255445
C           11.74909513962089        0.97037716109792       -1.18286143575008
C           13.12763412164987        1.03816186178881       -1.22651441319762
C           13.75951921307249        1.97085667936592       -2.03347479179923
C           12.99866554667575        2.83362352492572       -2.80541564075831
C           11.62030578424836        2.76335618413878       -2.76742154118553
C            6.61316249706136        0.73216109918116        0.10002916838226
C            5.23696516088096        0.71825155437347        0.15618810806129
Cl           0.13458236785107       -1.36547201423284       -1.16353718342482
H            0.19543084140593        1.73537157439931       -2.53184220239159
H            0.47235640941729        1.99160169863353       -0.92587610703106
H            0.42502526853856       -0.04958730187715       -1.43522774230550
H            2.45017020357490        2.63965819221174       -2.20849410599836
H            2.41321130779578        0.98915508056244       -2.87667759446486
H            2.66692395818451        0.05200930951410       -0.60529256495479
H            2.67931805435915        1.66765935213012        0.08746570622929
H            4.57108923577579        1.88993823888782       -2.93462415888651
H            6.98702678736026        1.91853071083240       -3.03604162007431
H            9.19221779255099        0.65001627082498       -0.22886763534431
H            9.05463663386952        2.39702384908514       -2.72981502656417
H           11.27576414711214        0.22793372338722       -0.55839715733654
H           13.71663668842047        0.35703483168322       -0.62901017037720
H           14.83786319368660        2.02127898476983       -2.06406938215246
H           13.48329328378554        3.56133329138573       -3.44043387111191
H           11.03234623288141        3.43983210681730       -3.37240325215935
H            7.18606286049935        0.40006685682974        0.95447739751832
H            4.74102152005956        0.37233811196394        1.05216041933461
