15
 energy: -16.219899808011 gnorm: 0.000307416478 xtb: 6.5.1 (fef0646)
N            1.01332572231580        0.08144164446474       -0.01284183805274
C            2.49626321310531        0.09015735598529       -0.04032432338788
C            3.00636325958108        0.80129453248366       -1.29345809447350
C            4.50562085241706        0.79965984747747       -1.32045644492978
C            5.22808391128845        0.26302020927065       -2.28543489993033
H            0.66727106702725       -0.39735218316703        0.82669943153596
H            0.64827991353530       -0.40232031168574       -0.84205936169922
H            0.65265408394671        1.04307935036143       -0.01664593962528
H            2.86306258466156       -0.93609465191406       -0.03169524529539
H            2.86998429349045        0.59883326815697        0.84829931057488
H            2.66617923495605        1.83920538503778       -1.29600637270614
H            2.63621568490542        0.30830248023510       -2.19250783862500
H            4.99198581852215        1.27842820737398       -0.48134099028128
H            4.77795988426214       -0.21699619119661       -3.13940569038731
H            6.30445047598529        0.28757105711639       -2.27548170271699
