34
 energy: -51.382403997934 gnorm: 0.000696547946 xtb: 6.5.1 (fef0646)
N            2.67128126954001       -1.92606132157702        1.83523630002426
C            2.34226224991186       -2.46706523617808        0.51824200061460
C            2.93124948661643       -1.56626751963431       -0.57460113627943
C            4.43010755251537       -1.54394076721386       -0.49098157035234
C            5.18508493595837       -2.56574319964932       -1.06280815658769
C            6.55681019894845       -2.58290662059180       -0.94330137401921
C            5.08364839863605       -0.52620948243136        0.19995753005031
C            6.45793573410168       -0.52233223961518        0.31218955007013
C            7.21259514211931       -1.55953350421794       -0.24599841460579
N            8.58205727666446       -1.46685190673329       -0.12299668111160
N            9.24965031416976       -2.52586170084789       -0.33975437257102
C           10.62462989751884       -2.41891302792492       -0.24141067968509
C           11.29796740346398       -1.28058906592955        0.22051335718555
C           12.67328548479299       -1.28530842942373        0.31066590293916
C           13.39456382556844       -2.41269683418020       -0.05832529129834
C           12.73482857867248       -3.54279788377407       -0.51770165829205
C           11.35755952584940       -3.55246069077973       -0.60594130525591
Cl           1.76775834831553        0.84999712750973        2.03604315811662
H            2.25878536087023       -2.47925294595248        2.57789303408460
H            2.17970189088897       -0.46612714420770        1.93915466365818
H            3.67901930271327       -1.89496055428683        1.96224861057865
H            1.25396713712420       -2.48421643614931        0.42785900436582
H            2.71907424285115       -3.49185042756628        0.39011156158817
H            2.53456824858181       -0.56015592354358       -0.44388694417507
H            2.61431081840044       -1.94908305562705       -1.54564588354673
H            4.68446689307735       -3.35227238744179       -1.61084356295705
H            7.15170263093000       -3.36471390567733       -1.39078944816327
H            4.50260924200007        0.27062396484708        0.64038208317790
H            6.97051488377104        0.26394018547988        0.84441674843332
H           10.71590610066783       -0.41741687411619        0.50602469739801
H           13.19296580833229       -0.40884623896185        0.67039264446703
H           14.47218514814496       -2.41026491336978        0.01554947156656
H           13.29991582599347       -4.41809684866816       -0.80309301768892
H           10.82461084228831       -4.42147419156453       -0.96041082173008
