  22
        -51.84989501
 N         -3.1506520863       -0.6208384873       -0.9514605357
 C         -3.2164070571        0.5114744067        0.0169441273
 C         -2.3344487641        0.2893444046        1.2454496366
 C         -0.8843451145        0.2420970977        0.9107855911
 C         -0.1685229556       -0.9417721431        1.0380296738
 F         -0.7904999598       -2.0706815792        1.4196986399
 C          1.1855811662       -0.9753594424        0.7370732870
 F          1.8689671347       -2.1242373989        0.8496488032
 C          1.8271794346        0.1721606080        0.2985412121
 F          3.1332636739        0.1367192037       -0.0037528003
 C          1.1137130014        1.3515113760        0.1536812663
 F          1.7299687261        2.4578523239       -0.2888819742
 C         -0.2402306217        1.3849954181        0.4549722689
 F         -0.9331997550        2.5221558756        0.2721210540
 Cl         0.0970853115       -0.9331323225       -2.4737579014
 H         -3.7809208266       -0.4755162133       -1.7488268817
 H         -3.4043064952       -1.5055371949       -0.4972537549
 H         -2.1934825679       -0.7264161347       -1.3246683343
 H         -4.2610291122        0.6624348882        0.3205242717
 H         -2.9070830549        1.4359963395       -0.4887546752
 H         -2.6140553057       -0.6472058844        1.7430398321
 H         -2.4935990019        1.0871339791        1.9816361036
