  22
        -51.75835834
 N         -3.0458522238       -0.6525900514       -0.6251593929
 C         -3.1063471762        0.7821633525       -0.2392142288
 C         -2.2399588174        1.0902703466        0.9768693118
 C         -0.8218913189        0.6893073724        0.7817136952
 C         -0.4194060415       -0.6028850886        1.0916436092
 F         -1.3269826055       -1.5019344502        1.5126606824
 C          0.8980607711       -0.9891530915        0.8931701920
 F          1.2799850043       -2.2426123988        1.1840743808
 C          1.8100872161       -0.0907426329        0.3623561900
 F          3.0823428770       -0.4675335977        0.1600656914
 C          1.4035494732        1.1886810387        0.0182617700
 F          2.2785648667        2.0473416193       -0.5285149262
 C          0.0867099543        1.5759657083        0.2203589672
 F         -0.3209897004        2.7980960279       -0.1649772740
 Cl        -0.0687378855       -1.3766407695       -2.2970953051
 H         -3.7610375829       -0.9012415862       -1.3251184229
 H         -3.1752798810       -1.2594698867        0.1998500662
 H         -2.1228190375       -0.8882695834       -1.0279558988
 H         -4.1480142904        1.0650934455       -0.0411932413
 H         -2.7825972549        1.3970222173       -1.0885172900
 H         -2.6305382807        0.5613239908        1.8538157903
 H         -2.2761961656        2.1592263842        1.2196417159
