  22
  -51.849895009999997       0.12512643300272489      !input
 N         -3.1506520863       -0.6208384873       -0.9514605357
 C         -3.2164070571        0.5114744067        0.0169441273
 C         -2.3344487641        0.2893444046        1.2454496366
 C         -0.8843451145        0.2420970977        0.9107855911
 C         -0.1685229556       -0.9417721431        1.0380296738
 F         -0.7904999598       -2.0706815792        1.4196986399
 C          1.1855811662       -0.9753594424        0.7370732870
 F          1.8689671347       -2.1242373989        0.8496488032
 C          1.8271794346        0.1721606080        0.2985412121
 F          3.1332636739        0.1367192037       -0.0037528003
 C          1.1137130014        1.3515113760        0.1536812663
 F          1.7299687261        2.4578523239       -0.2888819742
 C         -0.2402306217        1.3849954181        0.4549722689
 F         -0.9331997550        2.5221558756        0.2721210540
 Cl         0.0970853115       -0.9331323225       -2.4737579014
 H         -3.7809208266       -0.4755162133       -1.7488268817
 H         -3.4043064952       -1.5055371949       -0.4972537549
 H         -2.1934825679       -0.7264161347       -1.3246683343
 H         -4.2610291122        0.6624348882        0.3205242717
 H         -2.9070830549        1.4359963395       -0.4887546752
 H         -2.6140553057       -0.6472058844        1.7430398321
 H         -2.4935990019        1.0871339791        1.9816361036
  22
  -51.849593880000000        9.0982799987559038E-002 !md2
 N         -3.1920380813       -0.1695586620       -1.0895275879
 C         -3.1849796299       -0.5925942438        0.3404262432
 C         -2.3312134813        0.3187265654        1.2223054196
 C         -0.8790841413        0.2291080082        0.9042506785
 C         -0.1905740835       -0.9542893353        1.1373637403
 F         -0.8416551139       -2.0323455603        1.6078264055
 C          1.1657911316       -1.0413010076        0.8581554917
 F          1.8240837394       -2.1883084924        1.0822781284
 C          1.8383433725        0.0533780574        0.3386878545
 F          3.1476622133       -0.0325936722        0.0613183039
 C          1.1530425098        1.2323091383        0.0909177138
 F          1.7965633361        2.2830939750       -0.4393616371
 C         -0.2036309571        1.3187806894        0.3686335124
 F         -0.8664890489        2.4526213988        0.0837498776
 Cl         0.0584135965       -0.3541340587       -2.6408093513
 H         -3.5403905213        0.7909008985       -1.1854863205
 H         -3.7812555492       -0.7837794484       -1.6634948171
 H         -2.2372792723       -0.1941823203       -1.4821815376
 H         -2.8054779842       -1.6208664199        0.4100652099
 H         -4.2189999559       -0.6216668632        0.7092243075
 H         -2.4682957386        0.0662715520        2.2817683565
 H         -2.6562480589        1.3595910331        1.1106453412
  22
  -51.849461429999998        7.9084157539957234E-002 !gc
 N         -3.1835671678       -0.1068236534       -1.0910088865
 C         -3.1835740270       -0.5856453047        0.3213351044
 C         -2.3285045542        0.2865239904        1.2403776933
 C         -0.8764326003        0.2037023520        0.9213683322
 C         -0.1796141301       -0.9722670320        1.1667009213
 F         -0.8236281566       -2.0496988927        1.6481494861
 C          1.1764675764       -1.0537732168        0.8843571697
 F          1.8436959960       -2.1927103170        1.1228973726
 C          1.8393720939        0.0379764474        0.3465195385
 F          3.1484919579       -0.0425412826        0.0666485240
 C          1.1444359462        1.2075984446        0.0819008629
 F          1.7769682341        2.2524333574       -0.4728521508
 C         -0.2118141628        1.2885514514        0.3632724782
 F         -0.8866370541        2.4085895923        0.0531542981
 Cl         0.0505401662       -0.2743242945       -2.6739663937
 H         -3.5213854804        0.8605598384       -1.1489268164
 H         -3.7783296142       -0.6916113377       -1.6895311287
 H         -2.2288147335       -0.1256286009       -1.4841575100
 H         -2.8100921507       -1.6179652375        0.3527584085
 H         -4.2190415877       -0.6228526379        0.6853831861
 H         -2.4686589179       -0.0074024614        2.2887379595
 H         -2.6490242859        1.3323398435        1.1692760275
  22
  -51.849423850000001        7.6000932399775581E-002 !gc
 N         -3.1952829560       -0.1775771573       -1.0865129143
 C         -3.1794472252       -0.6069395967        0.3414106091
 C         -2.3281604158        0.3061192228        1.2239258474
 C         -0.8757012042        0.2167445435        0.9074678428
 C         -0.1857399312       -0.9634917245        1.1520245462
 F         -0.8362152528       -2.0382368654        1.6308037695
 C          1.1710359124       -1.0511891822        0.8751614590
 F          1.8310024933       -2.1947667981        1.1117623957
 C          1.8424194243        0.0396066506        0.3460865490
 F          3.1531849094       -0.0456636008        0.0755074790
 C          1.1554308623        1.2147886081        0.0855263927
 F          1.7969924817        2.2599153463       -0.4582842804
 C         -0.2015925972        1.3019373265        0.3613539929
 F         -0.8663610723        2.4309160356        0.0623358098
 Cl         0.0393694349       -0.2749319110       -2.6673474096
 H         -2.2440856738       -0.1855954473       -1.4803325468
 H         -3.5575901895        0.7783435963       -1.1770460928
 H         -3.7782690033       -0.7992834667       -1.6641999545
 H         -2.7924645292       -1.6327785002        0.4053003425
 H         -4.2118360711       -0.6448489816        0.7139319291
 H         -2.4662206187        0.0542150241        2.2834070704
 H         -2.6541229187        1.3465354551        1.1111367448
  22
  -51.849418530000001        7.5574279880040326E-002 !gc
 N         -3.1970679087       -0.1711592859       -1.0869935697
 C         -3.1802712139       -0.6051572160        0.3396336988
 C         -2.3280755039        0.3046544344        1.2245632693
 C         -0.8754691849        0.2152795339        0.9086778663
 C         -0.1848192245       -0.9645078969        1.1534427258
 F         -0.8347190120       -2.0397844293        1.6318555980
 C          1.1719975857       -1.0514474724        0.8763176096
 F          1.8326004395       -2.1946664377        1.1127427041
 C          1.8426773674        0.0394664553        0.3465736838
 F          3.1532431828       -0.0452310005        0.0747398339
 C          1.1548245291        1.2139962276        0.0854209766
 F          1.7954022681        2.2590252500       -0.4596224288
 C         -0.2021896002        1.3004250190        0.3614423019
 F         -0.8681769250        2.4281643767        0.0603120042
 Cl         0.0402602003       -0.2740164202       -2.6670329126
 H         -3.7801111227       -0.7884498059       -1.6638615562
 H         -2.2461947138       -0.1798883161       -1.4817832746
 H         -3.5589966533        0.7883862000       -1.1748198225
 H         -2.7940319756       -1.6314767962        0.4002754947
 H         -4.2124641110       -0.6433801436        0.7126973364
 H         -2.4666691158        0.0500851693        2.2833450508
 H         -2.6529918169        1.3456867720        1.1143777803
  22
  -51.849412860000001        7.5122194469151762E-002 !gc
 N         -3.1852428912       -0.5539274900       -0.9772816879
 C         -3.2030869537        0.5706014015        0.0020272559
 C         -2.3279858358        0.3017232282        1.2262873555
 C         -0.8763757677        0.2649489091        0.8960734835
 C         -0.1569528882       -0.9191871727        0.9976867140
 F         -0.7769848408       -2.0603297940        1.3445390476
 C          1.1988368871       -0.9403406277        0.7029336798
 F          1.8850410026       -2.0899321499        0.7874147973
 C          1.8386638493        0.2197905418        0.2961536058
 F          3.1472535411        0.1971984442        0.0036448559
 C          1.1217718693        1.3998771226        0.1770469210
 F          1.7366438635        2.5196788832       -0.2323380685
 C         -0.2336229261        1.4211005649        0.4726300538
 F         -0.9291758743        2.5607738430        0.3166901852
 Cl         0.0569331219       -1.1754057519       -2.4152577720
 H         -2.2310315194       -0.7180145441       -1.3275573329
 H         -3.7858773611       -0.3611882029       -1.7873704513
 H         -3.5069715078       -1.4273867471       -0.5379629628
 H         -4.2406356322        0.7599725788        0.3083763285
 H         -2.8574918851        1.4873939453       -0.4939788993
 H         -2.6125129968       -0.6511978230        1.6885440764
 H         -2.4882061687        1.0732281630        1.9897781274
  22
  -51.849409840000000        7.4882506030645085E-002 !mtd5
 N         -3.1896990602       -0.5475395486       -0.9813365345
 C         -3.2015750951        0.5743730393        0.0009876371
 C         -2.3274639576        0.2977812880        1.2243657744
 C         -0.8755349847        0.2620449415        0.8951912816
 C         -0.1547466423       -0.9210939752        0.9989519147
 F         -0.7735741418       -2.0627272475        1.3466023609
 C          1.2013313106       -0.9408845914        0.7054058492
 F          1.8891695198       -2.0893355865        0.7923632484
 C          1.8398287026        0.2194988733        0.2972013144
 F          3.1476804759        0.1969048711        0.0014449543
 C          1.1219732580        1.3989057171        0.1772848331
 F          1.7357095216        2.5188242972       -0.2336084446
 C         -0.2336474260        1.4187596988        0.4718726182
 F         -0.9304259972        2.5575148523        0.3146118093
 Cl         0.0528599836       -1.1721090341       -2.4139191425
 H         -3.5155078259       -1.4179192282       -0.5461399104
 H         -2.2361453688       -0.7151326185       -1.3319961552
 H         -3.7909699429       -0.3491833290       -1.7934270069
 H         -4.2381180867        0.7681231874        0.3080301071
 H         -2.8514192016        1.4906992197       -0.4926745480
 H         -2.6129372681       -0.6577395266        1.6805817486
 H         -2.4876728831        1.0650316429        1.9921084253
  22
  -51.849404399999997        7.4452677257377128E-002 !md6
 N         -3.1855602688       -0.5612719482       -0.9730540672
 C         -3.2019545051        0.5693150017       -0.0007128799
 C         -2.3273883162        0.3066900598        1.2252827706
 C         -0.8756223895        0.2691416602        0.8959472805
 C         -0.1575282292       -0.9160199426        0.9948370447
 F         -0.7794232481       -2.0578111585        1.3361893969
 C          1.1984213227       -0.9377161378        0.7007916013
 F          1.8831140535       -2.0885812476        0.7806228836
 C          1.8395107861        0.2228174086        0.2970983151
 F          3.1480283503        0.1994850600        0.0044109087
 C          1.1237906328        1.4038272996        0.1801862058
 F          1.7398073159        2.5238608944       -0.2267766715
 C         -0.2317646551        1.4255641607        0.4749703903
 F         -0.9266924400        2.5657094537        0.3196367682
 Cl         0.0536642822       -1.1888644115       -2.4130173595
 H         -3.7869520838       -0.3734522053       -1.7836375916
 H         -3.5061773826       -1.4292146965       -0.5290813319
 H         -2.2288930472       -0.7283476948       -1.3244037089
 H         -4.2392906514        0.7620143752        0.3043136508
 H         -2.8548941827        1.4825822688       -0.5021628899
 H         -2.6116064866       -0.6441706418        1.6919268288
 H         -2.4883618941        1.0817891765        1.9849736087
  22
  -51.849313389999999        6.7616863123963492E-002 !gc
 N         -3.1890123787       -0.5504958513       -0.9781366012
 C         -3.2004483190        0.5759947171       -0.0010399471
 C         -2.3265727927        0.3048949872        1.2236563987
 C         -0.8746293040        0.2689993328        0.8947604224
 C         -0.1553876519       -0.9155696897        0.9925371266
 F         -0.7761449390       -2.0583005803        1.3328522216
 C          1.2007870000       -0.9355731854        0.6993826746
 F          1.8866066616       -2.0858052421        0.7787045757
 C          1.8410286335        0.2261571987        0.2978420622
 F          3.1495004749        0.2044512525        0.0048373584
 C          1.1242608626        1.4066632015        0.1823135384
 F          1.7392486014        2.5275636236       -0.2238370545
 C         -0.2315417721        1.4266944052        0.4760417809
 F         -0.9275997687        2.5661807834        0.3207671459
 Cl         0.0482990140       -1.2053907503       -2.4090201676
 H         -3.5169939688       -1.4180765689       -0.5389883471
 H         -2.2353587835       -0.7222360517       -1.3264945420
 H         -3.7886497790       -0.3545099579       -1.7920119057
 H         -4.2369563686        0.7716324362        0.3049082567
 H         -2.8497925183        1.4898918712       -0.4987744031
 H         -2.6114833893       -0.6488497223        1.6838944506
 H         -2.4875362955        1.0750398180        1.9883707911
  22
  -51.849210710000001        6.0654993200138570E-002 !mtd1
 N         -3.1858348342       -0.5710723719       -0.9661771749
 C         -3.1988298382        0.5709345499       -0.0071614363
 C         -2.3259313277        0.3197761329        1.2223421112
 C         -0.8738043051        0.2814071645        0.8950034999
 C         -0.1586989886       -0.9062966077        0.9838760221
 F         -0.7841702719       -2.0499290568        1.3124227693
 C          1.1974594512       -0.9285695821        0.6907566016
 F          1.8792234149       -2.0818727540        0.7603631577
 C          1.8414967820        0.2338955306        0.2974113147
 F          3.1506262812        0.2105008301        0.0075381127
 C          1.1283342280        1.4172794885        0.1888306349
 F          1.7470633916        2.5391463981       -0.2089048261
 C         -0.2274370531        1.4395050460        0.4825670440
 F         -0.9205109496        2.5816413946        0.3335780780
 Cl         0.0445733707       -1.2439795434       -2.4059198567
 H         -2.2324493999       -0.7463110892       -1.3133279125
 H         -3.7856904562       -0.3904979326       -1.7796912494
 H         -3.5115611016       -1.4348956240       -0.5109909675
 H         -4.2357597670        0.7704927655        0.2948361950
 H         -2.8483916677        1.4773371367       -0.5185599016
 H         -2.6097169680       -0.6273200948        1.6968463948
 H         -2.4886964256        1.1014359089        1.9749300862
  22
  -51.849167260000002        5.7929305373932753E-002 !gc
 N         -3.1901170849       -0.5670372393       -0.9681170853
 C         -3.1977304460        0.5748401778       -0.0089393345
 C         -2.3250606669        0.3201007328        1.2200221946
 C         -0.8728703141        0.2822770152        0.8928098422
 C         -0.1573175029       -0.9052326368        0.9806628426
 F         -0.7823332882       -2.0494087995        1.3082032306
 C          1.1991008537       -0.9264885076        0.6886100758
 F          1.8816290199       -2.0793399284        0.7582734642
 C          1.8429334143        0.2368187438        0.2974127405
 F          3.1522451231        0.2144163709        0.0083113730
 C          1.1294461970        1.4201189853        0.1902788747
 F          1.7482730940        2.5430692968       -0.2042927682
 C         -0.2265501333        1.4413419501        0.4830096619
 F         -0.9197050914        2.5837642820        0.3365387718
 Cl         0.0391400876       -1.2585899883       -2.4024265703
 H         -3.5207498573       -1.4263444070       -0.5148851716
 H         -2.2372394267       -0.7478390658       -1.3139641180
 H         -3.7893329422       -0.3822122290       -1.7849528682
 H         -4.2336829337        0.7786526869        0.2935761879
 H         -2.8438197466        1.4798324324       -0.5204063600
 H         -2.6092797223       -0.6280609876        1.6920924990
 H         -2.4875829985        1.0999264022        1.9745675777
  22
  -51.849077219999998        5.2664601455651182E-002 !md6
 N         -3.1152769017       -0.7974454763       -0.8368323074
 C         -3.2118823700        0.4517005549       -0.0274213753
 C         -2.3349149364        0.4127746650        1.2234377384
 C         -0.8826750325        0.3485164975        0.9034780525
 C         -0.2036610714       -0.8619552283        0.9556883862
 F         -0.8672333306       -1.9963542046        1.2379661398
 C          1.1507436086       -0.9165813170        0.6591209787
 F          1.7982697090       -2.0908034978        0.6978939042
 C          1.8272490355        0.2357809391        0.2914284185
 F          3.1352491581        0.1819912438        0.0000692793
 C          1.1474152537        1.4408675379        0.2101050227
 F          1.7964161710        2.5528177436       -0.1663307468
 C         -0.2063095875        1.4956791525        0.5092287744
 F         -0.8678734599        2.6589769056        0.3833395946
 Cl         0.0861990505       -1.2523946675       -2.4289587583
 H         -3.7594153177       -0.7825170297       -1.6363402662
 H         -3.3313063467       -1.6212605192       -0.2635291153
 H         -2.1593973094       -0.9229408857       -1.2075407184
 H         -4.2616733344        0.6172455573        0.2497731207
 H         -2.9207836420        1.3083798435       -0.6494250741
 H         -2.5996664587       -0.4555658479        1.8388317943
 H         -2.5142754502        1.2978876267        1.8468052318
  22
  -51.848272010000002        2.2463111219816489E-002 !gc
 N         -3.0803352538       -0.9426650949       -0.7318369463
 C         -3.2184997318        0.3749095686       -0.0455357351
 C         -2.3393152620        0.4870543453        1.1995645298
 C         -0.8859675797        0.4079745015        0.8883957177
 C         -0.2315976726       -0.8166357598        0.9102330635
 F         -0.9217773731       -1.9453324633        1.1486322653
 C          1.1236005492       -0.8902511075        0.6218607125
 F          1.7459022025       -2.0786487616        0.6275879517
 C          1.8255798859        0.2580078488        0.2910819414
 F          3.1339958893        0.1854618255        0.0056671459
 C          1.1703870671        1.4782986936        0.2389860910
 F          1.8442762648        2.5873680614       -0.1005494100
 C         -0.1840994107        1.5520983490        0.5309605189
 F         -0.8192079450        2.7331601564        0.4400447814
 Cl         0.0852320508       -1.3596477753       -2.4296428236
 H         -2.1310033212       -1.0600523163       -1.1130134084
 H         -3.7422100231       -1.0377965533       -1.5114758115
 H         -3.2409772671       -1.7170821593       -0.0721645466
 H         -4.2726652572        0.5297083649        0.2210754989
 H         -2.9606626069        1.1770792491       -0.7492769411
 H         -2.5903287610       -0.3131289922        1.9063302722
 H         -2.5324710836        1.4316703937        1.7236412682
  22
  -51.848150740000001        1.9757776762842870E-002 !md6
 N         -3.0845288454       -0.9487916515       -0.7245477853
 C         -3.2183478188        0.3746971543       -0.0488233324
 C         -2.3384892524        0.4944090578        1.1951316370
 C         -0.8850833962        0.4146728961        0.8841918617
 C         -0.2321031386       -0.8107315201        0.9016159079
 F         -0.9240096610       -1.9398077473        1.1331513724
 C          1.1235263826       -0.8845634606        0.6152540900
 F          1.7443366220       -2.0737515646        0.6162741449
 C          1.8274158574        0.2643898425        0.2910202220
 F          3.1362069866        0.1917013693        0.0073816176
 C          1.1738056256        1.4857025257        0.2438949080
 F          1.8501905702        2.5960346006       -0.0864277268
 C         -0.1812102267        1.5596368122        0.5333516268
 F         -0.8148709457        2.7417462970        0.4460520651
 Cl         0.0792635365       -1.3912067392       -2.4232198566
 H         -3.7467349807       -1.0481134139       -1.5032806365
 H         -3.2470608232       -1.7150521463       -0.0605422716
 H         -2.1327641966       -1.0728310873       -1.1059556094
 H         -4.2719678331        0.5347902060        0.2168580790
 H         -2.9584618728        1.1704089673       -0.7590792107
 H         -2.5887122265       -0.3018966400        1.9065234558
 H         -2.5320477827        1.4418635199        1.7139594584
  22
  -51.847982780000002        1.6540514051636215E-002 !mtd4
 N         -3.0834955148       -0.9637919573       -0.7122955682
 C         -3.2186516750        0.3674924383       -0.0521798130
 C         -2.3389255913        0.5031569451        1.1903173752
 C         -0.8852754398        0.4216999530        0.8808331295
 C         -0.2347409098       -0.8050288336        0.8946453167
 F         -0.9287373869       -1.9333246961        1.1235364612
 C          1.1209839652       -0.8806980433        0.6092692382
 F          1.7391883952       -2.0712388179        0.6058333744
 C          1.8277978106        0.2680545836        0.2907850960
 F          3.1373301362        0.1939994021        0.0109532050
 C          1.1768675618        1.4909403754        0.2475921438
 F          1.8560102248        2.6010367533       -0.0777853490
 C         -0.1783149885        1.5665584441        0.5357642903
 F         -0.8086792136        2.7508786206        0.4550797179
 Cl         0.0771336797       -1.4092876836       -2.4228946706
 H         -3.2428180247       -1.7222313416       -0.0386911251
 H         -2.1350241966       -1.0899088098       -1.0929215135
 H         -3.7489840073       -1.0744927756       -1.4908256770
 H         -4.2724513226        0.5295682239        0.2115839164
 H         -2.9599784068        1.1550399533       -0.7718883830
 H         -2.5881781569       -0.2848972884        1.9111598640
 H         -2.5338819312        1.4565112361        1.6977798434
  22
  -51.847973699999997        1.6382347108013680E-002 !md6
 N         -3.0811043884       -0.9697233174       -0.7076477790
 C         -3.2187835243        0.3634893408       -0.0519350224
 C         -2.3390706952        0.5051527203        1.1899455902
 C         -0.8853663402        0.4230679040        0.8810063184
 C         -0.2357733430       -0.8041832156        0.8945908954
 F         -0.9314307857       -1.9323757984        1.1191859646
 C          1.1201131220       -0.8805596872        0.6101295943
 F          1.7372514845       -2.0716715526        0.6054524314
 C          1.8276738276        0.2676814391        0.2914305606
 F          3.1369757049        0.1927743067        0.0108082289
 C          1.1774444334        1.4909286638        0.2478857286
 F          1.8571094674        2.6006415325       -0.0779496919
 C         -0.1777934877        1.5674569648        0.5355971846
 F         -0.8071672943        2.7523186341        0.4552111798
 Cl         0.0775770213       -1.4067895874       -2.4230713802
 H         -3.7458185831       -1.0847440677       -1.4821141762
 H         -3.2366341776       -1.7263524340       -0.0310000436
 H         -2.1302535902       -1.0949370150       -1.0908401709
 H         -4.2728090184        0.5241359619        0.2117902893
 H         -2.9619254836        1.1490878169       -0.7743961338
 H         -2.5878675586       -0.2800439324        1.9140553725
 H         -2.5346376864        1.4604410038        1.6935115314
  22
  -51.847875440000003        1.4764507136773932E-002 !md1
 N         -3.0847181726       -0.9713803021       -0.7048311663
 C         -3.2177381189        0.3657608989       -0.0560789345
 C         -2.3385862959        0.5104846281        1.1858838470
 C         -0.8846470401        0.4279593857        0.8779395672
 C         -0.2357330328       -0.7996287239        0.8878830880
 F         -0.9317119324       -1.9281391364        1.1098513522
 C          1.1202216008       -0.8757995128        0.6037389766
 F          1.7370876472       -2.0670623592        0.5970807878
 C          1.8289599740        0.2732771746        0.2907998393
 F          3.1386637769        0.1988012367        0.0116790263
 C          1.1797165410        1.4972051468        0.2519398991
 F          1.8607679010        2.6078236396       -0.0676645246
 C         -0.1756899074        1.5734114954        0.5388562409
 F         -0.8041580335        2.7591163296        0.4635663867
 Cl         0.0722532468       -1.4353334514       -2.4189216227
 H         -3.7488674256       -1.0877095573       -1.4795587289
 H         -3.2441811510       -1.7235332346       -0.0241699192
 H         -2.1338961217       -1.1028938732       -1.0859319792
 H         -4.2713621680        0.5317837222        0.2058896897
 H         -2.9572297391        1.1466935428       -0.7822488764
 H         -2.5875656574       -0.2729393942        1.9118043348
 H         -2.5345198288        1.4670494433        1.6868792333
