16
 energy: -23.094430459668 gnorm: 0.000585370135 xtb: 6.5.1 (fef0646)
O            3.60609082854545        1.75759801071618        0.09266101570053
C            2.63417548239746        0.76285701477849       -0.15603407758360
C            3.00791249561242       -0.16577933542810       -1.31946541886090
C            4.44969212497931       -0.65236888176210       -1.22578141688592
N            4.67046411861159       -1.37111476946093        0.04502835774171
Cl           2.40697909307589       -3.38198680921934        0.55199340543790
H            3.59578697153843        2.40009860748855       -0.62924930748097
H            1.65397752266176        1.21426946838266       -0.34925363838096
H            2.54640107372175        0.18707613138148        0.76830112167448
H            2.87205091502386        0.35057321025314       -2.26935345104656
H            2.33331765815443       -1.02131821051588       -1.29123476197960
H            5.13220491316787        0.19725463019658       -1.26978244307507
H            4.64987405833706       -1.32742345629072       -2.05610386665226
H            4.61048132067092       -0.71304961442352        0.82625086426510
H            5.57868464034990       -1.83859647415731        0.06056433351989
H            3.92123678315235       -2.09338952193922        0.18942928360606
