12
 energy: -12.951743818911 gnorm: 0.000311755746 xtb: 6.5.1 (fef0646)
N            1.02843911219797       -0.03479858967365        0.01797002352256
C            2.50962691556398       -0.05029075477647        0.12233744998442
C            3.27919004608028        0.76549804160305       -0.86703842595196
C            3.27086226999503       -0.72969662258923       -0.97104762566347
H            0.63247125597475        0.76876321295036        0.52589908792026
H            0.62368377934116       -0.89956445382782        0.40388169051072
H            0.75851100092416        0.03907729959362       -0.97333863427825
H            2.84459416103184       -0.12362414826531        1.14702570668694
H            4.17581608338835        1.25879983944800       -0.52844093946982
H            2.73264861127397        1.33678073725445       -1.60169599638244
H            4.16177308341072       -1.27480054005312       -0.70424304013231
H            2.71898368081779       -1.18800402166386       -1.77737929674665
