  25
        -33.82662056
 N         -0.8567404408       -0.9844538261       -1.4764321137
 C         -0.9415051734       -2.2729932788       -0.7357386925
 C         -0.7098666985       -2.1098240962        0.7653027707
 C          0.7484585246       -1.8193488185        1.1461361981
 C          1.2648419588       -0.5074180497        0.6281947908
 C          2.2231916684       -0.4649903804       -0.3778102165
 C          2.6340668536        0.7422439000       -0.9085500595
 C          2.1008467956        1.9237066980       -0.4332201869
 C          1.1577313349        1.8968279670        0.5748729102
 C          0.7426643953        0.6887513528        1.1011382179
 Cl        -2.9098912815        1.3449120607        0.0449250317
 H         -1.0382675518       -1.0914054754       -2.4882410086
 H          0.0782881554       -0.5685849279       -1.3643974659
 H         -1.5341146474       -0.2954625442       -1.0974263449
 H         -0.2158987103       -2.9851694794       -1.1466548159
 H         -1.9272063208       -2.7200471679       -0.9194810254
 H         -1.0498460906       -3.0127572129        1.2905061738
 H         -1.3501549890       -1.3015814778        1.1381702091
 H          1.3891379541       -2.6296960651        0.7794156747
 H          0.8645892760       -1.8302621389        2.2372730852
 H          2.6335790871       -1.3879709100       -0.7549721466
 H          3.3737947999        0.7618597725       -1.6939253591
 H          2.4228286288        2.8667974661       -0.8467210635
 H          0.7400413830        2.8189586482        0.9479832470
 H         -0.0034975357        0.6654019572        1.8785285515
