  13
        -17.93333095
 N          0.7505618957        1.4459207073        0.0006121843
 C          1.7683080580        0.4018684944       -0.0004271978
 C          1.5050637831       -0.8788149494       -0.7556002820
 C          1.5057631762       -0.8804222201        0.7552561251
 Cl        -2.1805913370       -0.1322561208       -0.0000051289
 H         -1.0116095506        0.5121615512        0.0001431121
 H          0.8770288712        2.0397364626       -0.8116975051
 H          0.8793436306        2.0367013060        0.8143029101
 H          2.7961021731        0.7848172117       -0.0011118929
 H          2.3331227962       -1.3528182040       -1.2843313879
 H          0.5548828059       -0.9659215942       -1.2824433313
 H          2.3350361694       -1.3534237514        1.2831346684
 H          0.5558854200       -0.9673966099        1.2828684873
