  22
        -27.83280694
 N         -4.0876336455       -0.1749865637        0.7026031383
 C         -3.2723121094        0.1386446710       -0.5044550765
 C         -1.8541982693       -0.2816491092       -0.3650506170
 C         -0.8294560101        0.5946382705       -0.2262418744
 C          0.5545203062        0.2565176812       -0.0914299955
 C          1.5146963479        1.2852712921        0.0500581125
 C          2.8549763421        0.9938019704        0.1734320582
 C          3.2880420440       -0.3250534415        0.1603909350
 C          2.3675044416       -1.3551988535        0.0221603757
 C          1.0238348364       -1.0774219488       -0.1020553705
 H         -4.0991768699       -1.1888015200        0.8869995944
 H         -5.0659875961        0.1345115773        0.5979097524
 H         -3.7003117504        0.2865255927        1.5385665352
 H         -3.3220013641        1.2157109313       -0.7066212536
 H         -3.7186802689       -0.3445190684       -1.3834349830
 H         -1.6550623608       -1.3382900942       -0.3404603630
 H         -1.0702923126        1.6447597876       -0.2232741507
 H          1.1867271916        2.3115806323        0.0587620555
 H          3.5729708995        1.7927346728        0.2794000167
 H          4.3396453794       -0.5492318544        0.2560482091
 H          2.7092508918       -2.3790145618        0.0100319114
 H          0.3266778005       -1.8897136299       -0.2130768822
  22
        -27.83270564
 N         -4.0176926599       -0.0438929090       -0.8459735823
 C         -3.2895670823        0.0674548605        0.4490323945
 C         -1.8640565420       -0.3362741143        0.3415716222
 C         -0.8484453322        0.5551335991        0.2385238603
 C          0.5418289812        0.2369704039        0.1205466592
 C          1.4922830626        1.2801464668        0.0271759878
 C          2.8377185080        1.0074280576       -0.0822313069
 C          3.2856901573       -0.3063570944       -0.1028653706
 C          2.3749937384       -1.3503959496       -0.0119058769
 C          1.0264291957       -1.0913807705        0.0986278708
 H         -4.0090096916       -1.0150127307       -1.1906723903
 H         -3.5771817390        0.5438273034       -1.5687655094
 H         -5.0031585175        0.2485409441       -0.7606360516
 H         -3.7958036458       -0.5449892027        1.2067777586
 H         -3.3550878083        1.0988453316        0.8168611144
 H         -1.6508924747       -1.3896661123        0.2967411477
 H         -1.1031100771        1.6019086999        0.2524106289
 H          1.1527978179        2.3025810515        0.0449502905
 H          3.5481912049        1.8171023709       -0.1508968080
 H          4.3411753360       -0.5158959701       -0.1881682796
 H          2.7281337097       -2.3703231194       -0.0265983256
 H          0.3369967022       -1.9144328822        0.1723766765
  22
        -27.83259046
 N         -4.0165778785       -0.0297170484        0.7563479264
 C         -3.2795367084        0.0647944713       -0.5348229087
 C         -1.8553709303       -0.3392896570       -0.4128222472
 C         -0.8493698277        0.5499620234       -0.2295086974
 C          0.5396712943        0.2335309172       -0.0933685429
 C          1.4792614202        1.2747516380        0.0892821593
 C          2.8235969496        1.0041113012        0.2160967433
 C          3.2811641090       -0.3055614508        0.1662680330
 C          2.3812280720       -1.3475855241       -0.0126372185
 C          1.0338880281       -1.0905832920       -0.1412221848
 H         -4.0071571251       -0.9958058749        1.1148800674
 H         -5.0023843772        0.2581168562        0.6596258227
 H         -3.5834441626        0.5697295594        1.4739353302
 H         -3.3402734852        1.0918136668       -0.9157517138
 H         -3.7822261479       -0.5556352084       -1.2883461593
 H         -1.6364372022       -1.3925085667       -0.4207046391
 H         -1.1114968615        1.5941628181       -0.1885856296
 H          1.1323509182        2.2941532764        0.1263542725
 H          3.5258344538        1.8123056297        0.3531397143
 H          4.3358440106       -0.5133305720        0.2647414075
 H          2.7418457961       -2.3642198445       -0.0526741205
 H          0.3530155907       -1.9117024461       -0.2839117534
  22
        -27.83248890
 N         -3.9941296282        0.1283557431        0.7753564789
 C         -3.2701932143        0.3230780306       -0.5119854853
 C         -1.8195194425        0.5782051320       -0.3206671571
 C         -0.8906074014       -0.4082067772       -0.3360993983
 C          0.5180023748       -0.2413852791       -0.1462738546
 C          1.1177504867        1.0181694677        0.0861791412
 C          2.4797845987        1.1317619271        0.2587846949
 C          3.2908176851        0.0061162392        0.2060470143
 C          2.7288041686       -1.2425607808       -0.0222934966
 C          1.3685777120       -1.3700843321       -0.1959386670
 H         -4.9986587855       -0.0545654305        0.6289783935
 H         -3.9127213728        0.9642707632        1.3725255555
 H         -3.6039488052       -0.6663104563        1.3027332857
 H         -3.7279980107        1.1531380863       -1.0660625130
 H         -3.4078776465       -0.5613469703       -1.1462750713
 H         -1.5158103067        1.5884196220       -0.1093002960
 H         -1.2368864438       -1.4127951510       -0.5140904370
 H          0.5068880576        1.9029753652        0.1263476554
 H          2.9214203864        2.1007793503        0.4347443225
 H          4.3575236410        0.1018909016        0.3409301719
 H          3.3620818706       -2.1157029496       -0.0650454615
 H          0.9402956447       -2.3426619979       -0.3752488471
  22
        -27.83240271
 N         -3.9651127694        0.1285243409       -0.8653555487
 C         -3.2957365176       -0.0244882930        0.4566530354
 C         -1.8661375421       -0.4083802595        0.3340943911
 C         -0.8645524156        0.5014582123        0.2636598303
 C          0.5304232404        0.2099958221        0.1322917375
 C          1.4635527506        1.2711045431        0.0724706636
 C          2.8129362549        1.0242635060       -0.0489862192
 C          3.2821621983       -0.2806137818       -0.1144689687
 C          2.3888311574       -1.3418925880       -0.0565150353
 C          1.0365020328       -1.1087943067        0.0650332746
 H         -3.9370985222       -0.7547814616       -1.3954442046
 H         -3.4957864356        0.8460494260       -1.4369567136
 H         -4.9545829686        0.4029536995       -0.7673120884
 H         -3.8358676640       -0.7703348680        1.0546160518
 H         -3.3773418981        0.9140575518        1.0188060250
 H         -1.6372874104       -1.4557763561        0.2441557596
 H         -1.1360045155        1.5426804664        0.3177305706
 H          1.1075053381        2.2866745147        0.1250489584
 H          3.5099517346        1.8472945575       -0.0922587976
 H          4.3406534173       -0.4699241125       -0.2090417522
 H          2.7584513507       -2.3548870879       -0.1057488720
 H          0.3607544584       -1.9450146853        0.1131939230
  22
        -27.83228633
 N         -3.9723079561        0.0752408373        0.7733421642
 C         -3.2839760461        0.0123534483       -0.5462460833
 C         -1.8565804861       -0.3812972617       -0.4297962474
 C         -0.8627569485        0.5167341386       -0.2260567316
 C          0.5301026789        0.2163349266       -0.0927183418
 C          1.4545894860        1.2660421072        0.1162337567
 C          2.8019053669        1.0110001924        0.2435279453
 C          3.2776225219       -0.2909587267        0.1674488481
 C          2.3928794803       -1.3408953674       -0.0388674879
 C          1.0426764768       -1.0995062688       -0.1678779308
 H         -3.9512566424       -0.8422972256        1.2420661516
 H         -4.9605388330        0.3558185748        0.6797705301
 H         -3.5120811522        0.7519100064        1.3996110553
 H         -3.3562769830        0.9875275724       -1.0437723575
 H         -3.8163946251       -0.6894139742       -1.2016083784
 H         -1.6237287782       -1.4313984354       -0.4577036143
 H         -1.1392658042        1.5562802640       -0.1653387650
 H          1.0935665563        2.2795760636        0.1739457468
 H          3.4922560493        1.8255069380        0.4017927681
 H          4.3344989754       -0.4865564712        0.2673517106
 H          2.7677156391       -2.3513292095       -0.0997562154
 H          0.3737720934       -1.9264247521       -0.3322119360
  22
        -27.83219340
 N         -3.9638360152        0.0346059830        0.7628393850
 C         -3.2699551250        0.3726213363       -0.5112578000
 C         -1.8171354924        0.6184076215       -0.3250128686
 C         -0.9000584509       -0.3788201379       -0.3260770865
 C          0.5108063351       -0.2264642219       -0.1409192628
 C          1.1275595185        1.0299007622        0.0624477817
 C          2.4911771824        1.1290853794        0.2314782739
 C          3.2869269952       -0.0083204566        0.2042800701
 C          2.7079961563       -1.2542215907        0.0048613063
 C          1.3460867699       -1.3673188994       -0.1655185727
 H         -3.8714685245        0.8013916199        1.4450828078
 H         -3.5597439213       -0.8103278582        1.1925954575
 H         -4.9708369830       -0.1369158317        0.6196172651
 H         -3.7467906143        1.2523620241       -0.9632385792
 H         -3.4143291990       -0.4404771182       -1.2335048768
 H         -1.5010232289        1.6281964960       -0.1295359001
 H         -1.2592422146       -1.3817274849       -0.4870603166
 H          0.5287317886        1.9236050060        0.0819647429
 H          2.9460150322        2.0958862029        0.3845334767
 H          4.3549097597        0.0761021271        0.3366394581
 H          3.3293370655       -2.1366445543       -0.0176652094
 H          0.9045916510       -2.3378825199       -0.3222169068
  22
        -27.83210571
 N         -3.9389867328        0.0388307599       -0.8502361943
 C         -3.2811050682        0.3689400245        0.4448283941
 C         -1.8239452669        0.6174398485        0.3010068383
 C         -0.9095960206       -0.3821263252        0.2867383316
 C          0.5058429038       -0.2277122845        0.1427468269
 C          1.1308199519        1.0334518557        0.0046200767
 C          2.4985256705        1.1342832256       -0.1260765307
 C          3.2903394982       -0.0061881907       -0.1237774870
 C          2.7033375036       -1.2568782240        0.0118668208
 C          1.3372761355       -1.3716367906        0.1434953111
 H         -3.8281575900        0.8100530959       -1.5246951366
 H         -4.9495098703       -0.1339833569       -0.7361342995
 H         -3.5229345456       -0.8032549217       -1.2741091013
 H         -3.4441245798       -0.4493527528        1.1573082841
 H         -3.7717209337        1.2448937986        0.8891841203
 H         -1.5005084077        1.6328013547        0.1515812426
 H         -1.2752285058       -1.3891099125        0.4008986125
 H          0.5350672870        1.9294236876        0.0059152502
 H          2.9596338749        2.1047202315       -0.2292491895
 H          4.3615520538        0.0795345154       -0.2257322830
 H          3.3216187618       -2.1417275583        0.0151515000
 H          0.8893847121       -2.3460219736        0.2504052454
  22
        -27.83202231
 N         -3.9358742625        0.0022029149       -0.8408598817
 C         -3.2802017974        0.3893491382        0.4394520475
 C         -1.8228700914        0.6321926063        0.2877650031
 C         -0.9113397958       -0.3699694740        0.2888253544
 C          0.5045868587       -0.2217725396        0.1429718882
 C          1.1340926121        1.0359684780       -0.0054466788
 C          2.5023129080        1.1309265216       -0.1352130522
 C          3.2901468878       -0.0122336061       -0.1223891238
 C          2.6985686918       -1.2596762891        0.0229259023
 C          1.3319936478       -1.3685524415        0.1541988396
 H         -3.8230055271        0.7424299883       -1.5488559122
 H         -4.9467855159       -0.1643448658       -0.7210362868
 H         -3.5201132056       -0.8584195642       -1.2259923439
 H         -3.4437959795       -0.3970642037        1.1868641100
 H         -3.7723383177        1.2835028697        0.8441147065
 H         -1.4968463264        1.6441636052        0.1215689113
 H         -1.2798090513       -1.3740510279        0.4182886260
 H          0.5414969732        1.9340181669       -0.0117314938
 H          2.9669935852        2.0988772089       -0.2454891777
 H          4.3617939330        0.0688928738       -0.2235414622
 H          3.3137304074       -2.1466323473        0.0342300408
 H          0.8806125334       -2.3404141280        0.2690760141
  22
        -27.83187516
 N         -3.9330340915        0.1909444912        0.7719809295
 C         -3.2883630112       -0.0465773336       -0.5497435255
 C         -1.8578586706       -0.4279878285       -0.4311842460
 C         -0.8757692219        0.4804702738       -0.2183872550
 C          0.5211868364        0.1976655935       -0.0891205781
 C          1.4296460305        1.2558440084        0.1460440143
 C          2.7803233147        1.0177894962        0.2705510797
 C          3.2754998331       -0.2747390189        0.1642771908
 C          2.4068918810       -1.3324617139       -0.0691598100
 C          1.0534055727       -1.1082037836       -0.1946688558
 H         -3.4616579238        0.9501169596        1.2851511322
 H         -3.8853522150       -0.6541530717        1.3597576703
 H         -4.9271080560        0.4485998819        0.6747401948
 H         -3.3753397944        0.8563953437       -1.1669351745
 H         -3.8438248379       -0.8243628687       -1.0901308198
 H         -1.6109606078       -1.4746423575       -0.4715330774
 H         -1.1664393572        1.5152350223       -0.1456307619
 H          1.0535578217        2.2622386405        0.2271512931
 H          3.4581205165        1.8383599226        0.4503849930
 H          4.3350480471       -0.4568720472        0.2613342089
 H          2.7969059935       -2.3353389229       -0.1547463873
 H          0.3972490874       -1.9405167976       -0.3817569296
  22
        -27.82981476
 N         -3.7414698267        0.9248815412        0.1522087727
 C         -3.3367239199       -0.4702203165       -0.1829813701
 C         -1.8658910928       -0.6999105196       -0.2085935231
 C         -0.9400849088        0.2561833704        0.0425098492
 C          0.4804500004        0.0848167233        0.0296260169
 C          1.3169896665        1.1882272557        0.3159647319
 C          2.6880671490        1.0588680999        0.3129564491
 C          3.2745932610       -0.1663952288        0.0264466939
 C          2.4771360521       -1.2666157806       -0.2587495977
 C          1.1043349668       -1.1509051087       -0.2592498439
 H         -3.4038564479        1.1985779557        1.0867821675
 H         -4.7676855766        1.0287492317        0.1571804546
 H         -3.3714158526        1.5977617753       -0.5352616977
 H         -3.7630215115       -0.7362594506       -1.1592894477
 H         -3.7986041203       -1.1550766910        0.5403085539
 H         -1.5311566624       -1.6957559180       -0.4440137661
 H         -1.2948040896        1.2441946476        0.2757743599
 H          0.8696667435        2.1426731302        0.5390104935
 H          3.3106197400        1.9124690111        0.5340020352
 H          4.3496963546       -0.2635346469        0.0254229449
 H          2.9376869384       -2.2171896228       -0.4814327670
 H          0.5035568415       -2.0151318530       -0.4840064120
  22
        -27.82931329
 N         -4.2006350786        0.9314206145        0.2952737060
 C         -3.2714366259       -0.1374913475       -0.1707594759
 C         -1.8426142668        0.2254134525       -0.0063046135
 C         -0.8286791638       -0.6420950227       -0.2419583071
 C          0.5671583286       -0.3564802564       -0.1113631598
 C          1.0571717775        0.9134524500        0.2720895807
 C          2.4107145420        1.1438044196        0.3850821256
 C          3.3205304168        0.1280817405        0.1237240540
 C          2.8668013572       -1.1280709555       -0.2549721592
 C          1.5164691732       -1.3715316266       -0.3726552117
 H         -4.0531334825        1.1394335180        1.2938118028
 H         -5.1882239791        0.6589003302        0.1766137544
 H         -4.0540686715        1.8054480914       -0.2306664803
 H         -3.4720155946       -0.3607639406       -1.2262159426
 H         -3.4787072115       -1.0634960605        0.3798891734
 H         -1.6228059833        1.2297394924        0.3079844664
 H         -1.0916417366       -1.6389765491       -0.5552149448
 H          0.3684178935        1.7143074621        0.4763644655
 H          2.7685029234        2.1191397573        0.6777367642
 H          4.3798067044        0.3149314975        0.2144736937
 H          3.5764191507       -1.9159346109       -0.4573862000
 H          1.1718369495       -2.3494392556       -0.6667326755
  22
        -27.82923231
 N         -4.2593701206       -0.6837645361       -0.0135260356
 C         -3.2517526546        0.4148157895       -0.0453426167
 C         -1.8542334385       -0.0798162406        0.0037292346
 C         -0.7780558986        0.7407027284       -0.0648737174
 C          0.5923853926        0.3322841573       -0.0197208502
 C          1.6155955627        1.3042780844       -0.1115032285
 C          2.9438212898        0.9428021280       -0.0716914648
 C          3.3016562931       -0.3919383890        0.0609570835
 C          2.3178216591       -1.3672428872        0.1539040035
 C          0.9853620923       -1.0193697324        0.1148611253
 H         -4.1373297294       -1.3207622990       -0.8144109831
 H         -5.2237855374       -0.3200374815       -0.0493141634
 H         -4.1700184311       -1.2435228451        0.8471351546
 H         -3.4277774189        1.0950336936        0.7974521774
 H         -3.3953824153        1.0133693634       -0.9535489442
 H         -1.7105295593       -1.1407552801        0.1013261187
 H         -0.9654874335        1.7972791184       -0.1627590342
 H          1.3456305946        2.3422814270       -0.2147964166
 H          3.7107792546        1.6988630612       -0.1438971274
 H          4.3439177639       -0.6711278900        0.0919093596
 H          2.6011252486       -2.4036463691        0.2575215709
 H          0.2380225504       -1.7900686602        0.1892070482
