  22
        -27.94109545
 N         -4.1359209173        0.3278627832       -0.6195339853
 C         -3.2612993842       -0.2636026654        0.4389556180
 C         -1.8507080851        0.1899147863        0.3344011598
 C         -0.8052243298       -0.6583160868        0.1888357452
 C          0.5680186804       -0.2813899638        0.0800595124
 C          1.5543782179       -1.2794658379       -0.0871295182
 C          2.8852810394       -0.9492155413       -0.1952490527
 C          3.2826505101        0.3791281502       -0.1400973480
 C          2.3351650267        1.3795138462        0.0249718027
 C          1.0005517530        1.0630916905        0.1339396069
 H         -3.7795730200        0.0854280331       -1.5487764581
 H         -4.1500966015        1.3495296987       -0.5440367020
 H         -5.0999522695       -0.0124865519       -0.5446623620
 H         -3.3049117327       -1.3567177885        0.3744230998
 H         -3.6581037276       -0.0097034376        1.4295822143
 H         -1.6749134899        1.2491044535        0.3606281222
 H         -1.0205086197       -1.7123628510        0.1495920962
 H          1.2528924293       -2.3119047789       -0.1306178910
 H          3.6234413998       -1.7242925553       -0.3232975354
 H          4.3266830130        0.6336685415       -0.2250587640
 H          2.6482147558        2.4101415249        0.0682739914
 H          0.2822544181        1.8524656162        0.2640531710
