  22
        -27.94109545
 N         -4.1359209173        0.3278627832       -0.6195339853
 C         -3.2612993842       -0.2636026654        0.4389556180
 C         -1.8507080851        0.1899147863        0.3344011598
 C         -0.8052243298       -0.6583160868        0.1888357452
 C          0.5680186804       -0.2813899638        0.0800595124
 C          1.5543782179       -1.2794658379       -0.0871295182
 C          2.8852810394       -0.9492155413       -0.1952490527
 C          3.2826505101        0.3791281502       -0.1400973480
 C          2.3351650267        1.3795138462        0.0249718027
 C          1.0005517530        1.0630916905        0.1339396069
 H         -3.7795730200        0.0854280331       -1.5487764581
 H         -4.1500966015        1.3495296987       -0.5440367020
 H         -5.0999522695       -0.0124865519       -0.5446623620
 H         -3.3049117327       -1.3567177885        0.3744230998
 H         -3.6581037276       -0.0097034376        1.4295822143
 H         -1.6749134899        1.2491044535        0.3606281222
 H         -1.0205086197       -1.7123628510        0.1495920962
 H          1.2528924293       -2.3119047789       -0.1306178910
 H          3.6234413998       -1.7242925553       -0.3232975354
 H          4.3266830130        0.6336685415       -0.2250587640
 H          2.6482147558        2.4101415249        0.0682739914
 H          0.2822544181        1.8524656162        0.2640531710
  22
        -27.94100133
 N         -4.1019065851        0.2572459923       -0.6701896255
 C         -3.2651902302       -0.2274368540        0.4698183096
 C         -1.8512606997        0.2170294497        0.3704998725
 C         -0.8150034466       -0.6367544808        0.1949151835
 C          0.5607584685       -0.2701998640        0.0823045403
 C          1.5369426802       -1.2739850115       -0.1088003102
 C          2.8700547357       -0.9537854902       -0.2199731250
 C          3.2797917829        0.3698137148       -0.1448599150
 C          2.3424458020        1.3756505443        0.0433336163
 C          1.0058221052        1.0692370473        0.1560181010
 H         -5.0701326085       -0.0700036620       -0.5922030712
 H         -3.7185350148       -0.0788674993       -1.5585589637
 H         -4.1106611537        1.2813633837       -0.6983833418
 H         -3.3074007751       -1.3218013293        0.5106518805
 H         -3.6966229754        0.1197913854        1.4167373696
 H         -1.6660610849        1.2742399110        0.4123310262
 H         -1.0403752087       -1.6876690695        0.1340903192
 H          1.2258898722       -2.3028135587       -0.1677454459
 H          3.6003479464       -1.7331468589       -0.3658549194
 H          4.3255264338        0.6164242551       -0.2322305895
 H          2.6650087654        2.4025874302        0.1018489298
 H          0.2954789601        1.8626683420        0.3039203705
  22
        -27.94088665
 N         -4.0579926029       -0.3282119339       -0.7932812463
 C         -3.2659265047       -0.2525825756        0.4721950411
 C         -1.8188756216       -0.5097721967        0.2559708695
 C         -0.8670169166        0.4424428530        0.4002683536
 C          0.5337299227        0.2652119221        0.1850755406
 C          1.0993147782       -0.9689933927       -0.2078259784
 C          2.4553929298       -1.0923332515       -0.4056671775
 C          3.2936625258       -0.0017948924       -0.2214530808
 C          2.7646821713        1.2213127920        0.1652131268
 C          1.4109278054        1.3582912409        0.3665083556
 H         -5.0489691534       -0.1234634122       -0.6296182298
 H         -3.9870907544       -1.2636716535       -1.2049893183
 H         -3.6985573193        0.3441079472       -1.4775591093
 H         -3.6655689880       -0.9695911753        1.1995754415
 H         -3.4025673295        0.7354681105        0.9269556590
 H         -1.5386490937       -1.4948573329       -0.0680407943
 H         -1.1874281893        1.4247589819        0.7024895444
 H          0.4667764176       -1.8257494228       -0.3542551223
 H          2.8707185151       -2.0408997467       -0.7055208368
 H          4.3551174318       -0.1047727500       -0.3784637374
 H          3.4182078344        2.0666887625        0.3076866185
 H          1.0069848378        2.3101189044        0.6664791350
  22
        -27.94061673
 N         -4.0243411695       -0.2341048242       -0.8026642848
 C         -3.2655447977       -0.3050857330        0.4832422937
 C         -1.8157383899       -0.5538255834        0.2768982233
 C         -0.8769557072        0.4146974089        0.3941993674
 C          0.5258424870        0.2517975435        0.1810090969
 C          1.1072989214       -0.9822856559       -0.1882731022
 C          2.4647293221       -1.0917510538       -0.3848568982
 C          3.2888631737        0.0128671766       -0.2221090105
 C          2.7441820385        1.2362277107        0.1412785808
 C          1.3887997472        1.3595300762        0.3405758397
 H         -3.6466219258        0.5091249807       -1.3979222751
 H         -5.0192946560       -0.0453921950       -0.6432779411
 H         -3.9428707967       -1.1176477291       -1.3148792062
 H         -3.6917511645       -1.0913224606        1.1181005965
 H         -3.4039191801        0.6289942280        1.0401451967
 H         -1.5232071745       -1.5419146323       -0.0270480173
 H         -1.2107564177        1.3995052185        0.6728690760
 H          0.4858166069       -1.8497774670       -0.3179279402
 H          2.8921422031       -2.0404038085       -0.6668180564
 H          4.3515315282       -0.0794464461       -0.3776453001
 H          3.3868350572        2.0924404300        0.2676169611
 H          0.9726978371        2.3115611552        0.6227404119
  22
        -27.94046332
 N         -3.9847307990       -0.3564028840        0.8511318819
 C         -3.2777023555       -0.2350073563       -0.4601960758
 C         -1.8222696796       -0.5101753644       -0.3501012298
 C         -0.8905851511        0.4696170808       -0.2808928154
 C          0.5176864237        0.2777468362       -0.1399127466
 C          1.1125405095       -1.0013477583       -0.0531019576
 C          2.4747424165       -1.1380326378        0.0845340641
 C          3.2906234255       -0.0168186858        0.1397913026
 C          2.7327461541        1.2508753302        0.0555684392
 C          1.3724420743        1.4016728629       -0.0817133841
 H         -3.8812244189       -1.3045563223        1.2248826248
 H         -4.9855805700       -0.1541729817        0.7600517764
 H         -3.5851761718        0.2944869130        1.5341296695
 H         -3.4331478879        0.7706079712       -0.8673346490
 H         -3.7327663559       -0.9192470049       -1.1869822720
 H         -1.5181674094       -1.5374779181       -0.2685037647
 H         -1.2351111551        1.4879859709       -0.3367333676
 H          0.4976076393       -1.8820768786       -0.0950848551
 H          2.9123034170       -2.1210910989        0.1499471936
 H          4.3571031822       -0.1306604369        0.2477251377
 H          3.3689900218        2.1200240282        0.0982202170
 H          0.9460840977        2.3881638196       -0.1464272659
  22
        -27.94037272
 N         -4.0071076304        0.0749561290       -0.7644808058
 C         -3.2754082038       -0.1364243788        0.5214748498
 C         -1.8539824760        0.2871577060        0.4442361831
 C         -0.8411780047       -0.5793499724        0.2074338081
 C          0.5411931186       -0.2404031659        0.0887796464
 C          1.4900851491       -1.2577800849       -0.1594138154
 C          2.8286335921       -0.9643562572       -0.2787999056
 C          3.2709552491        0.3451615412       -0.1565239990
 C          2.3608650600        1.3638830241        0.0878070770
 C          1.0192314156        1.0841066598        0.2099903047
 H         -3.5548431115       -0.4462151864       -1.5217737352
 H         -3.9996723822        1.0671420566       -1.0197410013
 H         -4.9826764463       -0.2333286569       -0.6985200108
 H         -3.3290439732       -1.1944000493        0.8027185828
 H         -3.7845840754        0.4074930392        1.3267011141
 H         -1.6447324340        1.3379101137        0.5264383256
 H         -1.0933523139       -1.6202733892        0.0986553199
 H          1.1538639990       -2.2758855096       -0.2548408176
 H          3.5378217772       -1.7538704801       -0.4678087463
 H          4.3208252412        0.5707983035       -0.2508404774
 H          2.7086077892        2.3798619803        0.1823695385
 H          0.3301247548        1.8870195688        0.4009882596
  22
        -27.94028330
 N         -3.9946517479        0.0527581983       -0.7731921625
 C         -3.2767264754       -0.1252463542        0.5254716527
 C         -1.8543828910        0.2956433990        0.4519454515
 C         -0.8444818834       -0.5723185011        0.2084998990
 C          0.5387340532       -0.2368578895        0.0898247014
 C          1.4842845887       -1.2557078254       -0.1649779286
 C          2.8234109580       -0.9654503544       -0.2856388412
 C          3.2696299930        0.3422488777       -0.1581701470
 C          2.3628897226        1.3623175666        0.0929223671
 C          1.0207427822        1.0856824614        0.2165718542
 H         -3.5350235705       -0.4884697971       -1.5117877784
 H         -3.9832736239        1.0378647617       -1.0544181664
 H         -4.9712148528       -0.2529402740       -0.7095377415
 H         -3.3334068093       -1.1755731444        0.8335441646
 H         -3.7943607959        0.4393814539        1.3107896930
 H         -1.6419794515        1.3452916340        0.5405339289
 H         -1.1001378380       -1.6117220925        0.0934522945
 H          1.1450441314       -2.2724185791       -0.2644739146
 H          3.5300042760       -1.7560450621       -0.4797809090
 H          4.3198989584        0.5654616611       -0.2538193655
 H          2.7136164547        2.3768867537        0.1914898434
 H          0.3342475003        1.8895758285        0.4127901877
  22
        -27.94021030
 N         -3.9608272825       -0.2531744513        0.8675677858
 C         -3.2769143381       -0.2918611225       -0.4608556170
 C         -1.8200098154       -0.5551846636       -0.3433638576
 C         -0.8976305770        0.4345966317       -0.2987721472
 C          0.5120801436        0.2606390240       -0.1492304155
 C          1.1196063000       -1.0096582358       -0.0282258706
 C          2.4827026172       -1.1288498582        0.1166400428
 C          3.2869891401        0.0016929334        0.1455253719
 C          2.7165452902        1.2610591998        0.0274001194
 C          1.3552025148        1.3943669096       -0.1175218487
 H         -3.5454835576        0.4707118060        1.4619475529
 H         -3.8543691194       -1.1512367657        1.3489716567
 H         -4.9623661461       -0.0557759149        0.7710769979
 H         -3.4373551440        0.6585484164       -0.9826760748
 H         -3.7461880838       -1.0562844253       -1.0924676800
 H         -1.5071164058       -1.5769847631       -0.2303224428
 H         -1.2520010125        1.4476070651       -0.3833390668
 H          0.5137186746       -1.8973725205       -0.0497464354
 H          2.9300135602       -2.1054065924        0.2083369217
 H          4.3542193089       -0.0985017645        0.2594156168
 H          3.3438342656        2.1374600575        0.0494917946
 H          0.9190217348        2.3744662348       -0.2085096441
  22
        -27.94017491
 N         -3.7315456245       -0.9730471145       -0.0890589071
 C         -3.3370379987        0.4539804102        0.1236100123
 C         -1.8682305775        0.6893333366        0.1859547214
 C         -0.9356387428       -0.2557855565       -0.0733143320
 C          0.4807590927       -0.0769960177       -0.0414064141
 C          1.3247702013       -1.1719172292       -0.3329869602
 C          2.6934074232       -1.0357429584       -0.3121163068
 C          3.2696766233        0.1880674782       -0.0025497141
 C          2.4638864450        1.2800638500        0.2875073131
 C          1.0935042818        1.1576945982        0.2704809125
 H         -4.7520095057       -1.0787565023       -0.0879655410
 H         -3.3550247915       -1.5686407048        0.6565773881
 H         -3.3858382954       -1.3185796688       -0.9911508919
 H         -3.8000191824        0.8120230888        1.0512930249
 H         -3.7664229507        1.0631157276       -0.6813817127
 H         -1.5429670495        1.6827075893        0.4394629825
 H         -1.2814000539       -1.2406291255       -0.3272448291
 H          0.8843295126       -2.1241303983       -0.5739646767
 H          3.3219103779       -1.8821985138       -0.5369614543
 H          4.3426683555        0.2905194502        0.0123120641
 H          2.9157325092        2.2291413402        0.5267943567
 H          0.4859555044        2.0155630530        0.4964674459
  22
        -27.94010947
 N         -3.9556328258       -0.2139843967        0.8665975665
 C         -3.2759635040       -0.3145454244       -0.4607349946
 C         -1.8185426241       -0.5715780210       -0.3363482280
 C         -0.9000180830        0.4220409652       -0.3010505993
 C          0.5102918175        0.2546838049       -0.1494567261
 C          1.1225753415       -1.0123606813       -0.0185634100
 C          2.4862547767       -1.1254410028        0.1257168803
 C          3.2864742752        0.0081920939        0.1444427762
 C          2.7112681659        1.2644738803        0.0169256528
 C          1.3492983725        1.3916879617       -0.1276138078
 H         -3.5458219717        0.5434119706        1.4219040025
 H         -3.8391724853       -1.0854211952        1.3926712698
 H         -4.9593159557       -0.0312802849        0.7640140130
 H         -3.4385103970        0.6101469662       -1.0263109915
 H         -3.7471291690       -1.1079685985       -1.0540241805
 H         -1.5017865861       -1.5908331784       -0.2112049866
 H         -1.2581970653        1.4326984392       -0.3967831993
 H          0.5199926892       -1.9024762368       -0.0326071957
 H          2.9372162297       -2.0996051642        0.2246189620
 H          4.3542350037       -0.0871923277        0.2576142700
 H          3.3353589443        2.1433105754        0.0312141261
 H          0.9094883580        2.3694581105       -0.2259618779
  22
        -27.94000910
 N         -4.1853984337       -1.0189848364       -0.1051270734
 C         -3.2702440386        0.1555549329        0.0356776377
 C         -1.8378729173       -0.2141442569       -0.0703581248
 C         -0.8325981966        0.6606929690        0.1669856645
 C          0.5629110712        0.3713766532        0.0778148336
 C          1.0590028355       -0.8984946367       -0.2945131609
 C          2.4129142221       -1.1328891405       -0.3670864463
 C          3.3171564101       -0.1217998876       -0.0739378274
 C          2.8567778323        1.1343701796        0.2941377015
 C          1.5059757175        1.3825078438        0.3698590269
 H         -3.9881752358       -1.7142758533        0.6210599835
 H         -4.0567321253       -1.4663740019       -1.0177685227
 H         -5.1680927730       -0.7398675856       -0.0221543891
 H         -3.4496635513        0.6418201359        1.0014990256
 H         -3.5109346050        0.9010636124       -0.7315080114
 H         -1.6099465563       -1.2234534354       -0.3571364925
 H         -1.1036196881        1.6635540842        0.4497666069
 H          0.3748608343       -1.6944077524       -0.5267982920
 H          2.7750933672       -2.1069412541       -0.6536044283
 H          4.3765555938       -0.3121534331       -0.1323273970
 H          3.5614283328        1.9177652436        0.5217482865
 H          1.1551454020        2.3590963184        0.6567358347
  22
        -27.93997350
 N         -3.9386740905       -0.1725604521        0.8761906060
 C         -3.2932606637        0.0008844245       -0.4605939149
 C         -1.8661134432        0.3983056670       -0.3571729807
 C         -0.8616082974       -0.5048073983       -0.2718994092
 C          0.5280548541       -0.2035667585       -0.1376429578
 C          1.4652604391       -1.2579229163       -0.0539627636
 C          2.8104593881       -1.0015657818        0.0756122988
 C          3.2711764170        0.3063620767        0.1260852262
 C          2.3728897199        1.3610381477        0.0453907699
 C          1.0247277664        1.1185628847       -0.0844978450
 H         -3.9047391843        0.7043894589        1.4048707794
 H         -3.4443373278       -0.8852095894        1.4219450050
 H         -4.9195310998       -0.4579368793        0.7875466861
 H         -3.8499236664        0.7463803625       -1.0413056268
 H         -3.3723255393       -0.9331606565       -1.0292510903
 H         -1.6430872334        1.4474576237       -0.2891457835
 H         -1.1276431017       -1.5472315670       -0.3100685247
 H          1.1146110115       -2.2749053111       -0.0924059034
 H          3.5104486199       -1.8189815745        0.1382108191
 H          4.3261947475        0.5030093487        0.2275924209
 H          2.7350394292        2.3756491890        0.0846673975
 H          0.3449379253        1.9491794822       -0.1478338262
  22
        -27.93991113
 N         -3.9373793559       -0.1273054904        0.8643082170
 C         -3.2749983168       -0.3624756010       -0.4546438327
 C         -1.8163373362       -0.6086529847       -0.3238901231
 C         -0.9059600518        0.3927076766       -0.3076325165
 C          0.5056782599        0.2403740541       -0.1527404087
 C          1.1289800898       -1.0186628721        0.0012326016
 C          2.4936423410       -1.1172188424        0.1468975568
 C          3.2839657495        0.0234997125        0.1444285803
 C          2.6977771661        1.2721967790       -0.0056669023
 C          1.3347316181        1.3848541499       -0.1520989484
 H         -4.9429430284        0.0416303085        0.7568580455
 H         -3.5236112096        0.6845555334        1.3332832118
 H         -3.8107119412       -0.9395097668        1.4759738629
 H         -3.4428885779        0.5015044875       -1.1079338781
 H         -3.7555695107       -1.2099176777       -0.9590323257
 H         -1.4914298429       -1.6227992628       -0.1786935488
 H         -1.2726390327        1.3981233856       -0.4238418450
 H          0.5341560312       -1.9140957102        0.0037869841
 H          2.9530737414       -2.0854695119        0.2633749320
 H          4.3525616642       -0.0604796985        0.2587509896
 H          3.3141767991        2.1565651824       -0.0076924678
 H          0.8864151602        2.3567605822       -0.2684828685
  22
        -27.93983745
 N         -3.9478588565       -0.0091688853       -0.7765658709
 C         -3.2638189938       -0.4291411882        0.4839545675
 C         -1.8085104065       -0.6544992599        0.2930760320
 C         -0.9005944222        0.3462759147        0.3686333797
 C          0.5075084422        0.2181544418        0.1669001001
 C          1.1298041499       -1.0138283319       -0.1369676889
 C          2.4908035381       -1.0893874994       -0.3245497397
 C          3.2783101415        0.0482161980       -0.2171712061
 C          2.6931117450        1.2703314976        0.0817872981
 C          1.3337540883        1.3598262738        0.2719374864
 H         -3.8311125846       -0.7260574574       -1.4991110247
 H         -3.5409585004        0.8618085802       -1.1317844484
 H         -4.9515431092        0.1412161872       -0.6301983483
 H         -3.7379027311       -1.3389599599        0.8717120900
 H         -3.4175306226        0.3340462487        1.2559482769
 H         -1.4856754860       -1.6444099905        0.0264084785
 H         -1.2666763880        1.3309521596        0.6035825470
 H          0.5371025303       -1.9066862250       -0.2213951773
 H          2.9496192652       -2.0370858681       -0.5557960488
 H          4.3439747295       -0.0174272596       -0.3656907314
 H          3.3073190271        2.1523271417        0.1648403599
 H          0.8860133015        2.3109707977        0.5042629057
  22
        -27.93982381
 N         -3.9206069223       -0.2374393202        0.8726671990
 C         -3.2956400306        0.0349805750       -0.4573437854
 C         -1.8671743923        0.4255039573       -0.3471772355
 C         -0.8673145609       -0.4840842327       -0.2796523021
 C          0.5241549783       -0.1931036129       -0.1415107384
 C          1.4546271801       -1.2542891335       -0.0698394672
 C          2.8012932243       -1.0079888811        0.0638599665
 C          3.2702245787        0.2963199941        0.1298674688
 C          2.3787412473        1.3575527121        0.0603555912
 C          1.0291357303        1.1251587302       -0.0729927282
 H         -3.8749196586        0.5974795133        1.4646768524
 H         -3.4215403021       -0.9906857582        1.3563215754
 H         -4.9039048140       -0.5123923102        0.7780912595
 H         -3.8621027195        0.8201120046       -0.9726505264
 H         -3.3824037355       -0.8546218908       -1.0922464992
 H         -1.6388033134        1.4721372477       -0.2595024438
 H         -1.1393350018       -1.5241382554       -0.3358409923
 H          1.0975627183       -2.2684998012       -0.1203116112
 H          3.4960152849       -1.8305109172        0.1176518343
 H          4.3263647415        0.4851173293        0.2345118072
 H          2.7474271716        2.3693147747        0.1107771280
 H          0.3547079771        1.9607077793       -0.1283184731
  22
        -27.93973139
 N         -3.9431320031        0.0230051741       -0.7635578917
 C         -3.2630032669       -0.4473258775        0.4811935388
 C         -1.8073714082       -0.6675171957        0.2867013809
 C         -0.9031222734        0.3364730684        0.3625666838
 C          0.5057202419        0.2134512687        0.1626817158
 C          1.1342680025       -1.0181710911       -0.1295385075
 C          2.4960695189       -1.0891714081       -0.3130924218
 C          3.2781711624        0.0528788420       -0.2136428706
 C          2.6867435206        1.2748460798        0.0734202470
 C          1.3265633063        1.3597135118        0.2597897895
 H         -4.9474501811        0.1660393762       -0.6145041671
 H         -3.8232348328       -0.6635985071       -1.5145540648
 H         -3.5367139153        0.9083797041       -1.0819661414
 H         -3.7401290894       -1.3708461838        0.8310431756
 H         -3.4174184150        0.2851049810        1.2822966030
 H         -1.4807100448       -1.6559214009        0.0188347077
 H         -1.2731136581        1.3198518650        0.5967391186
 H          0.5460018897       -1.9146309136       -0.2066023135
 H          2.9597567170       -2.0368237323       -0.5346017414
 H          4.3445145842       -0.0093265692       -0.3587746002
 H          3.2967748613        2.1602786518        0.1504422072
 H          0.8740903267        2.3109272928        0.4824466775
