22
 energy: -27.943204306407 gnorm: 0.000450538796 xtb: 6.5.1 (fef0646)
N            1.66925231432997        0.42680835828681       -1.13087982547327
C            2.62269212691678       -0.04276276516718       -0.08634923076604
C            3.08999031766743        1.10332152993902        0.75420618470305
C            4.37196316582225        1.43695860988673        0.88187143227183
C            4.90015388703414        2.52771995352018        1.69033916609155
C            4.17864481459722        3.11613763434250        2.72998568671367
C            4.72191811806316        4.15244157040023        3.46482754208129
C            5.99234926442505        4.62493901717301        3.17591076026859
C            6.72257517647214        4.04591887452563        2.15059168367712
C            6.18451604133550        3.00381055023419        1.42034216101055
H            1.34049557394611       -0.36023046467061       -1.70185722982854
H            2.12840763229614        1.11139137710868       -1.74318828686247
H            0.85910366480144        0.87991657526745       -0.69170973401076
H            3.47241763872323       -0.52793705412606       -0.56560499460794
H            2.11347025995950       -0.77266295921021        0.54638111574818
H            2.32342839502346        1.65634955555534        1.27586857134212
H            5.12359382651915        0.88119999440666        0.33541784517325
H            3.19686957674370        2.75019396233323        2.98601244150995
H            4.15670313831591        4.59497707916048        4.27199924289042
H            6.41434532962419        5.43529038048051        3.75186240112387
H            7.71569559869536        4.40675870932251        1.92581677446228
H            6.76352413868829        2.55791951123136        0.62445629248165
