  18
        -21.24417631
 N          1.4180890970       -1.1759419463       -0.2345378490
 C          1.6369357379        0.1765872453        0.3531960537
 C          0.7198782276        1.2505989154       -0.2380602962
 C         -0.7446528415        1.2256012000        0.2375746938
 C         -1.6105247588        0.1081984379       -0.3561651715
 O         -1.3740382227       -1.1593352014        0.2204567846
 H          1.6478354371       -1.1995581250       -1.2377532114
 H          0.4159444671       -1.4022169633       -0.1283725895
 H          1.9711393236       -1.9057396180        0.2379119433
 H          2.6908572111        0.4478357910        0.2037885725
 H          1.4967579604        0.1297183228        1.4402036926
 H          0.7460505762        1.1804349181       -1.3307999976
 H          1.1461033198        2.2368557976       -0.0088041205
 H         -1.2094138309        2.1913930924       -0.0015089909
 H         -0.7744966502        1.1547764512        1.3294779629
 H         -1.4156855425        0.0031898477       -1.4314707947
 H         -2.6841916973        0.3317579262       -0.2670314512
 H         -1.9459871879       -1.3254736797        0.9953508033
  18
        -21.24319986
 N          1.4631878359       -1.1892093941       -0.1040699478
 C          1.6845615031        0.2221027765        0.3206033053
 C          0.6921414998        1.2012978728       -0.3142800073
 C         -0.7199899190        1.2054499795        0.3079951011
 C         -1.7022856414        0.1718984426       -0.2532297919
 O         -1.3640213854       -1.1567292210        0.0782146191
 H          1.7196264627       -1.3340027818       -1.0907132657
 H          0.4526892426       -1.3844204585       -0.0094168701
 H          1.9909564891       -1.8646798201        0.4679810797
 H          2.7179384379        0.4994560402        0.0721229915
 H          1.6179382336        0.2894260927        1.4136675101
 H          0.6179483805        0.9989710942       -1.3880190341
 H          1.1128994005        2.2139021026       -0.2453176897
 H         -1.1625337398        2.2031127274        0.1853413994
 H         -0.6395033054        1.0588177574        1.3902410415
 H         -1.7557546086        0.2449983972       -1.3475173285
 H         -2.7140080488        0.3637026502        0.1339444691
 H         -2.0964421256       -1.7771540040       -0.1056258434
  18
        -21.23982433
 N          1.4546774038       -1.2135042310        0.0426031493
 C          1.5849313295        0.2410452205        0.3746617742
 C          0.6393103254        1.1029983621       -0.4710133585
 C         -0.7656759085        1.2874104267        0.1215452643
 C         -1.4582488129       -0.0173099802        0.5164129954
 O         -1.4116034685       -0.9986233107       -0.4956636358
 H          1.8178640249       -1.8298360754        0.7842413378
 H          1.9464879606       -1.4469579646       -0.8315758375
 H          0.4524463455       -1.4164894482       -0.1109052804
 H          2.6320832458        0.5390649061        0.2281450999
 H          1.3823374362        0.4052095281        1.4399973408
 H          0.5534318532        0.6429391753       -1.4621206476
 H          1.0885155189        2.0888185219       -0.6505753707
 H         -1.3950498205        1.8173305196       -0.6036218663
 H         -0.7120036670        1.9486681310        0.9944362670
 H         -2.5055393889        0.1409939106        0.8133705889
 H         -0.9673818534       -0.4629398331        1.3911169285
 H         -2.1047088156       -0.8630752314       -1.1706477964
  18
        -21.23837803
 N          1.5296916407       -1.0142800163       -0.5371477087
 C          1.3475841700       -0.0439802194        0.5821166735
 C          0.6704498577        1.2585003054        0.1582728399
 C         -0.6438435461        1.0792018415       -0.6065823831
 C         -1.6724237295        0.2297858466        0.1350039666
 O         -1.2227672483       -1.0958590815        0.2972318630
 H          2.0713407470       -1.8396795524       -0.2403628114
 H          2.0220616268       -0.5859393709       -1.3343428956
 H          0.6073253831       -1.3526999993       -0.8602801525
 H          2.3227810758        0.1657947112        1.0413439227
 H          0.7489174182       -0.5322046646        1.3620584408
 H          1.3696782703        1.8387721098       -0.4565765838
 H          0.4881389865        1.8778510286        1.0454508237
 H         -0.4406578949        0.6043582511       -1.5723536037
 H         -1.0727458172        2.0601186446       -0.8470930301
 H         -2.6244179389        0.2016915106       -0.4150564866
 H         -1.8764700176        0.6494138711        1.1289978544
 H         -1.9097409555       -1.6687327950        0.6912696430
  18
        -21.23835824
 N          1.3216653617       -1.1875043165        0.1859145378
 C          1.7252109698        0.2470900377        0.1276220759
 C          0.6296968673        1.1753970933       -0.3989992446
 C         -0.6728304301        1.1637191881        0.4239717701
 C         -1.7197572888        0.1872733203       -0.1123705954
 O         -1.2271949859       -1.1287757289       -0.2047406371
 H          2.1063748511       -1.8096381959        0.4329298460
 H          0.9354149280       -1.4937368460       -0.7207513118
 H          0.5670368938       -1.3318120960        0.8778908878
 H          2.6221385871        0.3337515454       -0.5002822465
 H          2.0369023304        0.5682766351        1.1293157529
 H          0.3959339063        0.9078753745       -1.4357167841
 H          1.0270817302        2.1982424703       -0.4513385270
 H         -1.1089078128        2.1707872744        0.4604202431
 H         -0.4407364299        0.9116153061        1.4640520293
 H         -2.0461424838        0.4925082023       -1.1159903167
 H         -2.6099538747        0.1771708042        0.5331270606
 H         -1.9226996294       -1.7553736834       -0.4865868299
  18
        -21.23666068
 N          1.4738171367       -1.2048974801        0.0382761509
 C          1.5898925397        0.2497407963        0.3696517486
 C          0.6356814421        1.0948023451       -0.4827027336
 C         -0.7619468095        1.2926791878        0.1197705893
 C         -1.4849313904       -0.0007358277        0.5063819445
 O         -1.4057519415       -0.9832822744       -0.5064056224
 H          0.4726669883       -1.4069791755       -0.1220622621
 H          1.8353392673       -1.8193418995        0.7827914182
 H          1.9711526981       -1.4347078817       -0.8338976854
 H          2.6341458631        0.5589665982        0.2256957596
 H          1.3807639069        0.4138669062        1.4337395603
 H          0.5339288900        0.6136744248       -1.4627423237
 H          1.0839934967        2.0759904987       -0.6883202133
 H         -1.3838253213        1.8310481503       -0.6067966883
 H         -0.6983428620        1.9524082268        0.9931063316
 H         -2.5431485470        0.2017972597        0.7286831858
 H         -1.0499578625       -0.4351297736        1.4158608959
 H         -2.1494478525       -1.6172500620       -0.4738555280
  18
        -21.23520745
 N          1.6552804948       -0.9742157568       -0.5696986289
 C          1.3174876352       -0.0921239385        0.5867115524
 C          0.6509841019        1.2210315647        0.1817359014
 C         -0.6392186011        1.0584809642       -0.6250430846
 C         -1.7109163782        0.2511253013        0.1023415413
 O         -1.2798861941       -1.0661869199        0.3539065065
 H          2.1796136703       -1.8090635012       -0.2681432703
 H          2.2313992965       -0.4792442465       -1.2658920139
 H          0.7982598946       -1.3061815455       -1.0343901170
 H          2.2313120277        0.1087468435        1.1616107901
 H          0.6546975580       -0.6475811272        1.2626553813
 H          1.3681177298        1.8189708152       -0.3939317195
 H          0.4378308979        1.8138731952        1.0799339696
 H         -0.4146442915        0.5593732688       -1.5734108433
 H         -1.0369236485        2.0438191710       -0.8986706241
 H         -2.6340714014        0.2019000667       -0.4933662317
 H         -1.9615269497        0.7190038242        1.0637166805
 H         -1.9922222689       -1.6197984352        0.7305119627
  18
        -21.23488874
 N          1.6712434298       -0.9686372723       -0.5729453376
 C          1.3147502641       -0.0980271762        0.5866266830
 C          0.6486712900        1.2161652716        0.1844507019
 C         -0.6386451598        1.0554122230       -0.6271446016
 C         -1.7156761648        0.2538003542        0.0987517691
 O         -1.2882737627       -1.0626538633        0.3602671691
 H          2.1939747144       -1.8045608536       -0.2715527170
 H          2.2557913999       -0.4656526155       -1.2562584018
 H          0.8224451962       -1.2991673554       -1.0534436403
 H          2.2205467613        0.1013962068        1.1745985234
 H          0.6456993621       -0.6615793594        1.2495309264
 H          1.3675067827        1.8166224972       -0.3864286213
 H          0.4316703844        1.8054831674        1.0840311573
 H         -0.4117971570        0.5527088459       -1.5730304153
 H         -1.0322588906        2.0411251762       -0.9052548995
 H         -2.6356817936        0.2029668364       -0.5016776463
 H         -1.9706311670        0.7273401238        1.0562272811
 H         -2.0040440093       -1.6134413016        0.7345142883
