16
 energy: -21.093195059086 gnorm: 0.000507118313 xtb: 6.5.1 (fef0646)
N            1.11141836573949       -0.11963093640505       -0.51767035823381
C            2.55435802999079       -0.32891160786240       -0.62782971246297
C            3.00057965183937       -1.41937904463608        0.34835989010054
C            4.48928879804143       -1.56075712017214        0.35323981351790
C            5.13685820073435       -2.66266409735555        0.02673546013375
Cl           0.45170405028665        0.69059522718680        2.22211184727911
H            0.79571991631898        0.60784633147059       -1.14929933517128
H            0.76367936975131        0.30981182299539        0.94043698441027
H            0.60664139309487       -0.97580550435368       -0.72364917455662
H            3.04295679132631        0.61421615535881       -0.37223555159955
H            2.85698319113974       -0.60654820328827       -1.64769734957642
H            2.53656753750775       -2.36944032381605        0.07578769057159
H            2.65729055235569       -1.14166074496521        1.34727821705957
H            5.03370183485788       -0.67318088438877        0.64726789824786
H            4.61640599735350       -3.56022272008414       -0.26631054658694
H            6.21134631966188       -2.72251834968406        0.04795422686734
