27
 energy: -28.931913955945 gnorm: 0.000186222743 xtb: 6.5.1 (fef0646)
N            0.81455813322176        0.25575640239560       -0.12403398252662
C            2.29524929666738        0.19499331550325       -0.04516898341073
C            2.86700177805488       -0.39388566835417       -1.33003882438691
C            4.40080442858683       -0.39286713884466       -1.35192985725560
C            4.89708517893629       -0.74682324241605       -2.75730288731868
C            6.42142197157677       -0.74429031229423       -2.82184495570261
C            6.99951386783672       -1.72910536330781       -1.81048819508645
C            6.51650148216748       -1.38084793573929       -0.40629852931286
C            4.99105916619807       -1.38172694945038       -0.34311459289828
H            0.41823416403048        0.64414082621691        0.73934662679364
H            0.43203399758640       -0.68626591011916       -0.26843633904857
H            0.52622872735420        0.84474216266633       -0.91416986059402
H            2.57622267760316       -0.41824686100242        0.80933192009038
H            2.68790291372254        1.20059555145286        0.10393736873256
H            2.52328094022766        0.19305847686777       -2.18339070199130
H            2.52357596070863       -1.42075546219771       -1.46238997719463
H            4.76400933557629        0.61082934795941       -1.10656431814161
H            4.50617505382696       -0.03153648426015       -3.48386202274900
H            4.53259852432282       -1.73903771319747       -3.03312194982256
H            6.79694482759738        0.25837762614556       -2.60297129222616
H            6.75145318742918       -1.00810885448565       -3.82903267235260
H            8.09094915866462       -1.70699384182613       -1.84796791711160
H            6.68069522580977       -2.74269585938628       -2.06610453377637
H            6.89427305787029       -0.39251311326154       -0.13303189942035
H            6.91829346764422       -2.09884586227832        0.31193787808129
H            4.68812210176673       -1.12436410152132        0.67195413960106
H            4.62930137501230       -2.38787303526460       -0.56593364097139
