  18
        -19.42977442
 N          1.8417330177        0.0001175493        0.5634891986
 C          0.8139042321       -0.0022715805       -0.5248413253
 C         -0.1178144260       -1.2311191476       -0.4306495088
 C         -1.3801863712       -0.7727207022        0.3338927271
 C         -1.3736898712        0.7768270444        0.3398318410
 C         -0.1165005856        1.2291702882       -0.4374724999
 H          1.3869922109        0.0029883922        1.4815377068
 H          2.4407887273        0.8293471399        0.5009651422
 H          2.4397616102       -0.8301088656        0.5055463975
 H          1.3453766843       -0.0052127685       -1.4909579729
 H          0.3840168770       -2.0603607970        0.0768220585
 H         -0.3816564345       -1.5885132707       -1.4319532011
 H         -1.3746820420       -1.1626820211        1.3581149160
 H         -2.2899846665       -1.1665303036       -0.1334549720
 H         -1.3494205780        1.1582955406        1.3666448913
 H         -2.2864087025        1.1830719081       -0.1115783825
 H          0.3885519327        2.0633045088        0.0589506984
 H         -0.3870745200        1.5761266514       -1.4403330265
  18
        -19.42918841
 N          2.0463213028       -0.0372750596        0.3317756772
 C          0.7759379946        0.0244557369       -0.4585460455
 C         -0.1067959778       -1.2331781878       -0.2366004525
 C         -1.4614106086       -0.7489184363        0.3262573992
 C         -1.5474111659        0.7555056179        0.0080511913
 C         -0.0893754355        1.2504489690       -0.0726900969
 H          2.6097996547       -0.8464052748        0.0543560870
 H          1.8405786051       -0.1186088798        1.3317614526
 H          2.6062519659        0.8081546107        0.1879081711
 H          1.0400484608        0.0957771691       -1.5262122084
 H          0.3856083591       -1.9269350612        0.4509135029
 H         -0.2486769506       -1.7782391759       -1.1760743416
 H         -1.5047264498       -0.9079751369        1.4094660903
 H         -2.3028491102       -1.3052112608       -0.1027406712
 H         -2.1218776992        1.3012367853        0.7656317132
 H         -2.0578438734        0.9145405778       -0.9482624488
 H          0.2379359190        1.6343591345        0.8974671491
 H          0.0249021580        2.0715673832       -0.7885815130
