  18
        -19.42977442
 N          1.8417330177        0.0001175493        0.5634891986
 C          0.8139042321       -0.0022715805       -0.5248413253
 C         -0.1178144260       -1.2311191476       -0.4306495088
 C         -1.3801863712       -0.7727207022        0.3338927271
 C         -1.3736898712        0.7768270444        0.3398318410
 C         -0.1165005856        1.2291702882       -0.4374724999
 H          1.3869922109        0.0029883922        1.4815377068
 H          2.4407887273        0.8293471399        0.5009651422
 H          2.4397616102       -0.8301088656        0.5055463975
 H          1.3453766843       -0.0052127685       -1.4909579729
 H          0.3840168770       -2.0603607970        0.0768220585
 H         -0.3816564345       -1.5885132707       -1.4319532011
 H         -1.3746820420       -1.1626820211        1.3581149160
 H         -2.2899846665       -1.1665303036       -0.1334549720
 H         -1.3494205780        1.1582955406        1.3666448913
 H         -2.2864087025        1.1830719081       -0.1115783825
 H          0.3885519327        2.0633045088        0.0589506984
 H         -0.3870745200        1.5761266514       -1.4403330265
