  18
  -19.429774420000001       0.19284263428973084      !mtd9
 N          1.8417330177        0.0001175493        0.5634891986
 C          0.8139042321       -0.0022715805       -0.5248413253
 C         -0.1178144260       -1.2311191476       -0.4306495088
 C         -1.3801863712       -0.7727207022        0.3338927271
 C         -1.3736898712        0.7768270444        0.3398318410
 C         -0.1165005856        1.2291702882       -0.4374724999
 H          1.3869922109        0.0029883922        1.4815377068
 H          2.4407887273        0.8293471399        0.5009651422
 H          2.4397616102       -0.8301088656        0.5055463975
 H          1.3453766843       -0.0052127685       -1.4909579729
 H          0.3840168770       -2.0603607970        0.0768220585
 H         -0.3816564345       -1.5885132707       -1.4319532011
 H         -1.3746820420       -1.1626820211        1.3581149160
 H         -2.2899846665       -1.1665303036       -0.1334549720
 H         -1.3494205780        1.1582955406        1.3666448913
 H         -2.2864087025        1.1830719081       -0.1115783825
 H          0.3885519327        2.0633045088        0.0589506984
 H         -0.3870745200        1.5761266514       -1.4403330265
  18
  -19.429762319999998       0.19038918749030770      !md5
 N          1.8421965055        0.0003875033        0.5631672719
 C          0.8138717959       -0.0023281964       -0.5247067358
 C         -0.1176674639       -1.2313044983       -0.4300167723
 C         -1.3809312869       -0.7726829471        0.3330305298
 C         -1.3735489855        0.7768364582        0.3402579167
 C         -0.1165709123        1.2290761838       -0.4373909603
 H          2.4405827222       -0.8295397381        0.5047573529
 H          1.3877801948        0.0026641536        1.4814499362
 H          2.4407444850        0.8298971355        0.5005672819
 H          1.3449677003       -0.0054552739       -1.4910274313
 H          0.3840324827       -2.0598260994        0.0787645208
 H         -0.3804567962       -1.5899711212       -1.4311414435
 H         -1.3774983834       -1.1635644934        1.3569136325
 H         -2.2902070892       -1.1654592074       -0.1362057081
 H         -1.3483425181        1.1574003539        1.3673819404
 H         -2.2862992086        1.1840466733       -0.1102242122
 H          0.3885313984        2.0632928380        0.0588503560
 H         -0.3873435157        1.5759321702       -1.4402267913
  18
  -19.429188409999998       0.10372692563708212      !md3
 N          2.0463213028       -0.0372750596        0.3317756772
 C          0.7759379946        0.0244557369       -0.4585460455
 C         -0.1067959778       -1.2331781878       -0.2366004525
 C         -1.4614106086       -0.7489184363        0.3262573992
 C         -1.5474111659        0.7555056179        0.0080511913
 C         -0.0893754355        1.2504489690       -0.0726900969
 H          2.6097996547       -0.8464052748        0.0543560870
 H          1.8405786051       -0.1186088798        1.3317614526
 H          2.6062519659        0.8081546107        0.1879081711
 H          1.0400484608        0.0957771691       -1.5262122084
 H          0.3856083591       -1.9269350612        0.4509135029
 H         -0.2486769506       -1.7782391759       -1.1760743416
 H         -1.5047264498       -0.9079751369        1.4094660903
 H         -2.3028491102       -1.3052112608       -0.1027406712
 H         -2.1218776992        1.3012367853        0.7656317132
 H         -2.0578438734        0.9145405778       -0.9482624488
 H          0.2379359190        1.6343591345        0.8974671491
 H          0.0249021580        2.0715673832       -0.7885815130
  18
  -19.429188199999999       0.10370387790556081      !md1
 N          2.0463192476       -0.0372747820        0.3317870019
 C          0.7759400510        0.0244551336       -0.4585421096
 C         -0.1068021520       -1.2331763152       -0.2366146033
 C         -1.4614047038       -0.7489174821        0.3262699110
 C         -1.5474121014        0.7555047397        0.0080564444
 C         -0.0893776255        1.2504516570       -0.0727008386
 H          2.6062759935        0.8081254916        0.1878791385
 H          2.6098100614       -0.8464859557        0.0543765228
 H          1.8405943479       -0.1185614941        1.3317152611
 H          1.0400644763        0.0957673372       -1.5262051147
 H          0.3856091462       -1.9269647354        0.4508635223
 H         -0.2487111144       -1.7782007966       -1.1761054003
 H         -1.5047005311       -0.9079656970        1.4094798764
 H         -2.3028499558       -1.3052159178       -0.1027080435
 H         -2.1218760742        1.3012378752        0.7656374234
 H         -2.0578506970        0.9145333403       -0.9482554978
 H          0.2379393781        1.6343841258        0.8974461568
 H          0.0248905210        2.0715553735       -0.7886102072
  18
  -19.429187930000001       0.10367425263286359      !md4
 N          2.0463779661       -0.0372598362        0.3316893999
 C          0.7759216062        0.0244553846       -0.4585147292
 C         -0.1067822173       -1.2331876850       -0.2365001539
 C         -1.4614716629       -0.7489212878        0.3261843866
 C         -1.5474225438        0.7555129213        0.0080048499
 C         -0.0893731758        1.2504341903       -0.0725893286
 H          1.8407448269       -0.1185645774        1.3316290049
 H          2.6063364717        0.8082145694        0.1877378930
 H          2.6098250264       -0.8464042877        0.0542307338
 H          1.0399289087        0.0957842328       -1.5262055084
 H          0.3855928695       -1.9268393768        0.4511405374
 H         -0.2485488429       -1.7783728317       -1.1759191388
 H         -1.5049369046       -0.9080051237        1.4093836824
 H         -2.3028575332       -1.3051953364       -0.1029410190
 H         -2.1219510422        1.3012355530        0.7655444738
 H         -2.0577617774        0.9145801503       -0.9483533902
 H          0.2378849895        1.6342356815        0.8976288315
 H          0.0249741537        2.0716210954       -0.7883910811
  18
  -19.429172139999999       0.10195636226453403      !md2
 N          2.0484019400        0.0326101228        0.3284799067
 C          0.7753194580       -0.0278077316       -0.4575990581
 C         -0.0919475153       -1.2491290122       -0.0660487493
 C         -1.5486897843       -0.7525878497        0.0085110739
 C         -1.4625923814        0.7528682093        0.3219796749
 C         -0.1036589338        1.2338400216       -0.2363399143
 H          2.6131016787        0.8395050985        0.0471069318
 H          2.6056327443       -0.8147565218        0.1850947945
 H          1.8460772159        0.1171733040        1.3288205956
 H          1.0355974082       -0.1026976026       -1.5259536403
 H          0.2328248238       -1.6273221347        0.9070596951
 H          0.0229737497       -2.0752011698       -0.7765210071
 H         -2.1263019514       -1.2953032279        0.7662811521
 H         -2.0562609757       -0.9143421015       -0.9485550520
 H         -1.5109132409        0.9158131191        1.4041274783
 H         -2.3013914730        1.3088268616       -0.1132633435
 H          0.3892110252        1.9243629556        0.4542551893
 H         -0.2403558572        1.7809977977       -1.1750559948
  18
  -19.429171250000000       0.10186038563683190      !md3
 N          2.0484034783        0.0325995781        0.3284852173
 C          0.7753190589       -0.0278024866       -0.4575970636
 C         -0.0919434597       -1.2491306918       -0.0660620016
 C         -1.5486864124       -0.7525930784        0.0085292623
 C         -1.4625959065        0.7528704542        0.3219713717
 C         -0.1036600097        1.2338446904       -0.2363455609
 H          2.6057085190       -0.8146117193        0.1849403785
 H          1.8460798750        0.1169743774        1.3289082786
 H          2.6129887504        0.8396236741        0.0472505815
 H          1.0355866516       -0.1026618434       -1.5259554842
 H          0.2328450121       -1.6273517450        0.9070305751
 H          0.0229688559       -2.0751829434       -0.7765589099
 H         -2.1262685284       -1.2952972960        0.7663305504
 H         -2.0562863741       -0.9143730416       -0.9485178356
 H         -1.5109390844        0.9158381790        1.4041131257
 H         -2.3013951965        1.3088122839       -0.1132909221
 H          0.3892208893        1.9243849722        0.4542277178
 H         -0.2403645276        1.7809854507       -1.1750714135
  18
  -19.429171119999999       0.10184637414308910      !md2
 N          2.0484286652        0.0325944020        0.3284355863
 C          0.7753081422       -0.0278059768       -0.4575857582
 C         -0.0919421333       -1.2491236580       -0.0660048769
 C         -1.5486917785       -0.7525987372        0.0085037794
 C         -1.4626290650        0.7528711090        0.3219272124
 C         -0.1036467259        1.2338484505       -0.2362825336
 H          1.8461516842        0.1170201835        1.3287928691
 H          2.6130714055        0.8396337097        0.0471233941
 H          2.6056936967       -0.8146528639        0.1849194325
 H          1.0355171362       -0.1026793679       -1.5259575679
 H          0.2328141970       -1.6272746220        0.9071250755
 H          0.0230122097       -2.0752197654       -0.7764445215
 H         -2.1263063509       -1.2952988002        0.7662833196
 H         -2.0562425596       -0.9143970111       -0.9485658598
 H         -1.5110574809        0.9158566332        1.4040636155
 H         -2.3013940283        1.3088051499       -0.1134110363
 H          0.3892151846        1.9242995884        0.4543917865
 H         -0.2402651954        1.7810920416       -1.1749607891
