  39
        -62.15247080
 N          7.7123286494       -1.6293433207        1.1953055903
 C          8.1711354678       -0.2639387494        0.8135569122
 C          7.5340525724        0.2106192473       -0.4910717780
 C          6.0718250664        0.4618171900       -0.3621550460
 C          5.4886091113        1.6813743986       -0.1610617779
 C          4.0821199328        1.6391280484       -0.0811218373
 C          3.5549171022        0.3742969184       -0.2179512682
 C          2.1718005224        0.0380250567       -0.1937745823
 C          1.6417773099       -1.2355714508       -0.3391512459
 C          0.2503298805       -1.2813042541       -0.2849810813
 C         -0.3486615624       -0.0429403616       -0.0950734994
 C         -1.7412403176        0.2032606582       -0.0094515766
 C         -2.3386411220        1.4421631681        0.1812208204
 C         -3.7306994323        1.4000805162        0.2215080924
 C         -4.2626301297        0.1286802800        0.0640186506
 C         -5.6474044117       -0.1997795319        0.0606801695
 C         -6.1828807489       -1.4599979090       -0.0935451297
 C         -7.5921505864       -1.4863022334       -0.0575861433
 C         -8.1540567525       -0.2605412002        0.1230638664
 S         -6.9433205566        0.9489474411        0.2526136687
 S         -2.9733107349       -1.0148088454       -0.1319644006
 S          0.8813958182        1.1772380437        0.0199627802
 S          4.8551412610       -0.7634635923       -0.4308646081
 H          8.0488773325       -2.3351595133        0.5230121054
 H          6.6829990021       -1.6678210360        1.1858132480
 H          8.0392036499       -1.9062549303        2.1345691865
 H          9.2656078399       -0.2607237187        0.7352332618
 H          7.9256226149        0.4422116796        1.6157388189
 H          7.6970079633       -0.5398073257       -1.2721405364
 H          8.0235557505        1.1241797843       -0.8487707939
 H          6.0576616249        2.5956538324       -0.0798370278
 H          3.4668460690        2.5140219817        0.0649610533
 H          2.2606997305       -2.1073663418       -0.4867326384
 H         -0.3200819272       -2.1919540587       -0.3849066973
 H         -1.7671564935        2.3516088131        0.2857225145
 H         -4.3488270477        2.2739194454        0.3610530141
 H         -5.5730710371       -2.3403064503       -0.2295487522
 H         -8.1691811425       -2.3943057790       -0.1640511146
 H         -9.2081350917       -0.0583889532        0.1791713377
