13
 energy: -15.161737472423 gnorm: 0.000396258303 xtb: 6.5.1 (fef0646)
N            1.00383277974411       -0.05369514208709        0.04242191417673
C            2.48650947302607       -0.08462099207584        0.04951078911750
C            2.98184192931647       -0.96156427199205        1.19897619948017
C            2.52922541846185       -2.33218041960825        1.04299559414087
C            2.11589332857586       -3.44422142593764        0.88217760823156
H            0.64742918193913        0.47250926409855       -0.76299094928641
H            0.64783196074607        0.37684360377091        0.90448685061295
H            0.64943888762074       -1.01825010425771       -0.00283545357705
H            2.87267473319330        0.92742362957761        0.16513810530543
H            2.83800448447081       -0.49269478083070       -0.89829947576404
H            2.63175297748394       -0.57882820307678        2.15993049478719
H            4.07249339760118       -0.95553864437692        1.21688621594760
H            1.78232144782029       -4.43115251320414        0.75970210682750
