  18
        -25.41031601
 N         -2.9947913847        1.7857270920        0.5251293375
 C         -1.5453768920        2.1242589852        0.5532215224
 C         -0.8535815336        1.8642089829       -0.7804698909
 C         -0.9116385102        0.4044809517       -1.2379553265
 C         -0.2531192982       -0.5658660698       -0.2674940450
 I          1.8027198630       -0.2016678844        0.0998775301
 Cl        -3.5757072790       -1.6438905587        0.0812654682
 H         -3.4755543697        2.2859992711       -0.2390441030
 H         -3.4682939996        2.0363843476        1.4082942912
 H         -3.1460654777        0.7706154632        0.3726111196
 H         -1.0526441223        1.5560100345        1.3508411796
 H         -1.4277928625        3.1781842170        0.8371465835
 H          0.1960028395        2.1790262907       -0.7189645142
 H         -1.3036873567        2.5087612226       -1.5467317380
 H         -0.4246453024        0.3074610649       -2.2185896811
 H         -1.9574917550        0.1129736374       -1.4075840423
 H         -0.3125421217       -1.5963103159       -0.6292255436
 H         -0.7448293952       -0.5459925800        0.7077965032
