  18
        -25.49530807
 N         -3.0349752080       -1.8046411176       -0.5158365233
 C         -1.5798068892       -2.1290330006       -0.5434816845
 C         -0.8839712871       -1.8495758644        0.7851944878
 C         -0.9313890962       -0.3819358419        1.2183482168
 C         -0.2517371625        0.5647587798        0.2416406035
 I          1.8238550130        0.1967497383       -0.0973662334
 Cl        -3.5995000423        1.6579580885       -0.0818602667
 H         -3.5064268061       -2.3056063719        0.2484166677
 H         -3.5021195930       -2.0603333581       -1.3964839463
 H         -3.1905549605       -0.7933847590       -0.3658030999
 H         -1.0944755081       -1.5647216600       -1.3476924695
 H         -1.4523563057       -3.1840085177       -0.8170916557
 H          0.1633306040       -2.1707850567        0.7273416647
 H         -1.3356730102       -2.4782037107        1.5623087583
 H         -0.4551491583       -0.2744074512        2.2023713449
 H         -1.9749585484       -0.0772824305        1.3712854155
 H         -0.3142370173        1.6010572649        0.5825252180
 H         -0.7293601286        0.5288649000       -0.7387679097
