  18
        -25.49530807
 N         -3.0349752080       -1.8046411176       -0.5158365233
 C         -1.5798068892       -2.1290330006       -0.5434816845
 C         -0.8839712871       -1.8495758644        0.7851944878
 C         -0.9313890962       -0.3819358419        1.2183482168
 C         -0.2517371625        0.5647587798        0.2416406035
 I          1.8238550130        0.1967497383       -0.0973662334
 Cl        -3.5995000423        1.6579580885       -0.0818602667
 H         -3.5064268061       -2.3056063719        0.2484166677
 H         -3.5021195930       -2.0603333581       -1.3964839463
 H         -3.1905549605       -0.7933847590       -0.3658030999
 H         -1.0944755081       -1.5647216600       -1.3476924695
 H         -1.4523563057       -3.1840085177       -0.8170916557
 H          0.1633306040       -2.1707850567        0.7273416647
 H         -1.3356730102       -2.4782037107        1.5623087583
 H         -0.4551491583       -0.2744074512        2.2023713449
 H         -1.9749585484       -0.0772824305        1.3712854155
 H         -0.3142370173        1.6010572649        0.5825252180
 H         -0.7293601286        0.5288649000       -0.7387679097
  18
        -25.49459690
 N         -3.3725529761       -1.8796886404       -0.9632417907
 C         -2.1371559331       -2.2940058400       -0.2372510195
 C         -0.8984089500       -1.5250136994       -0.6880428448
 C         -0.9655960889       -0.0300813651       -0.3746496388
 C          0.3114987481        0.7102928838       -0.7394549290
 I          2.0277163052        0.1792417855        0.4159618734
 Cl        -4.1562343158        1.4943407310       -0.2024726512
 H         -3.6049450022       -0.8945439742       -0.7675806751
 H         -4.1862974195       -2.4481765545       -0.6919087789
 H         -3.2480189975       -1.9716920822       -1.9827435435
 H         -1.9820499604       -3.3712219773       -0.3771806793
 H         -2.2834974604       -2.1573864056        0.8405484101
 H         -0.7509623528       -1.6647988505       -1.7649036161
 H         -0.0023929668       -1.9489587788       -0.2186664734
 H         -1.1709225961        0.1084285213        0.6943874701
 H         -1.8210518235        0.4171980760       -0.8972051413
 H          0.1976081939        1.7895745372       -0.6130888190
 H          0.5764336406        0.5362663559       -1.7840327010
  18
        -25.49415315
 N         -2.8176264784       -1.9597767999       -0.7506108515
 C         -2.0967877680       -2.5915552369        0.3923120208
 C         -0.7404965199       -1.9472652172        0.6656771087
 C         -0.8435156826       -0.5044921333        1.1608225362
 C          0.5126569517        0.1270660472        1.4323618139
 I          1.7356213518        0.4090094303       -0.2959054469
 Cl        -3.5904622867        1.4261429855       -0.0521815301
 H         -3.0335204369       -0.9711656200       -0.5537712463
 H         -3.7074413975       -2.4352599453       -0.9535165717
 H         -2.2428292195       -1.9848680637       -1.6063820449
 H         -1.9698400431       -3.6621538326        0.1879163639
 H         -2.7187541758       -2.5374979536        1.2933465123
 H         -0.1340866349       -1.9753283247       -0.2463850107
 H         -0.1812175380       -2.5395483907        1.4003286843
 H         -1.4672412180       -0.4730427052        2.0645086804
 H         -1.3749363142        0.1018887840        0.4177853012
 H          1.0934410814       -0.4823724752        2.1271559302
 H          0.4102171501        1.1173586263        1.8825672437
  18
        -25.49411210
 N         -2.8099366818       -1.9781015662       -0.7379496056
 C         -2.0809452020       -2.6152029819        0.3968926164
 C         -0.7241207013       -1.9697818916        0.6650721596
 C         -0.8275449535       -0.5374249319        1.1895217697
 C          0.5292481833        0.0988101634        1.4467287773
 I          1.7145859148        0.4240121979       -0.3000527084
 Cl        -3.5449839368        1.4243914321       -0.0622399938
 H         -2.2433425262       -2.0023712373       -1.5956002785
 H         -3.0211932978       -0.9890978123       -0.5375136105
 H         -3.7049145896       -2.4520688809       -0.9361748464
 H         -1.9533273871       -3.6842602721        0.1849334138
 H         -2.6968536393       -2.5680376233        1.3024027098
 H         -0.1301815875       -1.9772123294       -0.2555220209
 H         -0.1520605170       -2.5731784933        1.3806010804
 H         -1.4339956428       -0.5275141626        2.1054097576
 H         -1.3774981892        0.0789612131        0.4685939938
 H          1.1285083790       -0.5198000171        2.1173353162
 H          0.4286693714        1.0791744119        1.9185337125
  18
        -25.49269866
 N         -3.3095272275       -1.9432559308        0.1429986426
 C         -2.4282584543       -2.4930584668       -0.9276244712
 C         -1.3904350931       -1.4842179560       -1.4101376598
 C         -0.3855353733       -1.0829463585       -0.3275154608
 C          0.6644546793       -0.1039934822       -0.8230585327
 I          2.0836817999        0.5071969103        0.6521140249
 Cl        -4.4493506493        1.1687677643       -0.9981620755
 H         -2.7789303660       -1.7525124694        1.0031697442
 H         -4.0747905634       -2.5877992797        0.3844687787
 H         -3.7296208392       -1.0490563049       -0.1627621625
 H         -3.0491962167       -2.8227463955       -1.7701742976
 H         -1.9266201776       -3.3966246723       -0.5622917869
 H         -1.8991830100       -0.5874079646       -1.7818725855
 H         -0.8467660209       -1.8854330112       -2.2742736041
 H          0.1080974593       -1.9782478777        0.0713916818
 H         -0.9115291453       -0.6426696261        0.5282208892
 H          0.1979227563        0.8077479768       -1.2012136594
 H          1.2362585775       -0.5313734710       -1.6489879325
  18
        -25.49164348
 N         -2.8701299728       -1.1354955733       -1.0091851682
 C         -1.6653733443       -0.3609450824       -1.4264111116
 C         -1.1828887667        0.5840375547       -0.3331386757
 C         -0.0009777448        1.4617260394       -0.7563772389
 C          1.2642892035        0.6739500008       -1.0584079437
 I          2.0455553876       -0.4586938434        0.5747045205
 Cl        -5.3074183673        1.2358197286       -0.1337364534
 H         -2.6666498637       -1.7124194924       -0.1830035849
 H         -3.2096171718       -1.7567482714       -1.7556845978
 H         -3.6396800462       -0.4933178977       -0.7553049545
 H         -1.8910314027        0.2114027237       -2.3339665849
 H         -0.8643183506       -1.0530433317       -1.7087622179
 H         -0.9082927955        0.0010950305        0.5529697795
 H         -2.0220449609        1.2129010313       -0.0114018839
 H          0.2183109839        2.1909149708        0.0351556720
 H         -0.2887355296        2.0592201390       -1.6319582058
 H          2.0771643695        1.3317848320       -1.3753142788
 H          1.1020397891       -0.0370588533       -1.8700742339
  18
        -25.49126163
 N         -3.2298964356       -0.6031463441       -0.6299206306
 C         -2.3873482780        0.0547428160        0.4105668838
 C         -0.9809836864       -0.5278925320        0.4733058661
 C         -0.1006404847        0.1440300646        1.5285207543
 C          1.3107878859       -0.4197056261        1.5690235691
 I          2.4766024875       -0.0721661474       -0.1867958713
 Cl        -6.4453643875        0.8493303502       -0.6316147937
 H         -4.1798894625       -0.2006701932       -0.6621961220
 H         -3.3221007128       -1.6103960888       -0.4444803635
 H         -2.8102311014       -0.4963637713       -1.5658104133
 H         -2.8701137394       -0.0379080666        1.3906413542
 H         -2.3327290702        1.1320264332        0.2147542675
 H         -0.5058513267       -0.4429368228       -0.5102947889
 H         -1.0363833643       -1.6045261607        0.6692179034
 H         -0.5772045463        0.0498628459        2.5137699091
 H         -0.0540988538        1.2222685242        1.3299330414
 H          1.2925899535       -1.5012119932        1.7161720460
 H          1.8882718266        0.0065040267        2.3928261136
  18
        -25.49074233
 N         -2.7579108101        0.3413766202       -0.3385846629
 C         -2.4047616218       -0.9161973095        0.3812016219
 C         -0.8981629069       -1.1110340711        0.5269155216
 C         -0.2411154676       -0.0877222743        1.4538774714
 C          1.2608107519       -0.2873191476        1.5838009466
 I          2.3749460609        0.0618072726       -0.2049115206
 Cl        -6.2589475236        0.5722209906       -0.6925537671
 H         -2.4314204558        1.1712952861        0.1738084299
 H         -3.7788143988        0.4359572557       -0.4625652562
 H         -2.3244189156        0.3640192949       -1.2743112935
 H         -2.8448667395       -1.7683984252       -0.1519219445
 H         -2.8744824417       -0.9173284527        1.3716222912
 H         -0.4280492297       -1.0603968647       -0.4614050443
 H         -0.6808877911       -2.1207482140        0.8965272012
 H         -0.7188276073       -0.1323095874        2.4420735404
 H         -0.4351643793        0.9254454541        1.0820697258
 H          1.4917380116       -1.3071717663        1.8970857518
 H          1.6907559670        0.3830132632        2.3318485039
  18
        -25.49065159
 N         -2.4078689545       -1.6199270817       -0.9681934052
 C         -2.0447548862       -2.4569183280        0.2110583774
 C         -0.7339198032       -2.0500885338        0.8826865556
 C         -0.7278385962       -0.6236985490        1.4589366553
 C         -0.2990255770        0.4424955158        0.4617794452
 I          1.7197194295        0.2875378393       -0.2166023596
 Cl        -3.4653261630        1.6018691410        0.0361286238
 H         -2.6725049300       -0.6658484244       -0.6799440494
 H         -3.2077171610       -2.0120741375       -1.4843013662
 H         -1.6152993915       -1.5452424819       -1.6244464546
 H         -1.9861220854       -3.5068172424       -0.1034707754
 H         -2.8597763429       -2.4209344541        0.9435440941
 H          0.0898220379       -2.1497713402        0.1670002409
 H         -0.5051451183       -2.7701494819        1.6799159366
 H         -0.0445329179       -0.5747200794        2.3182334003
 H         -1.7205047961       -0.3927180845        1.8682079057
 H         -0.3885823389        1.4452622863        0.8864838906
 H         -0.9139255960        0.4239582912       -0.4376885987
  18
        -25.49051243
 N         -2.9428521581       -1.0410810786       -0.4065621036
 C         -1.9488058268       -0.5539628219        0.5935932221
 C         -0.8057347885       -1.5392741678        0.8008890569
 C          0.1974203608       -1.1006283001        1.8723585644
 C          0.9447542765        0.1763241028        1.5205463540
 I          2.1109722994        0.0903890175       -0.2661665543
 Cl        -5.4897301684        1.3675465166       -0.7739239176
 H         -2.4967669096       -1.1988339923       -1.3194502843
 H         -3.7090608804       -0.3629493403       -0.5434634630
 H         -3.3623461875       -1.9339802229       -0.1061915350
 H         -2.4502424035       -0.3631147963        1.5497713568
 H         -1.5550289079        0.4167451634        0.2723410228
 H         -0.2831307695       -1.6907184368       -0.1501515793
 H         -1.2234224907       -2.5207624557        1.0559806230
 H          0.9291445569       -1.9020548041        2.0416240822
 H         -0.3261557453       -0.9764564530        2.8299055550
 H          1.6409201954        0.4616078707        2.3129424126
 H          0.2567608193        1.0134659860        1.3918876880
  18
        -25.49012211
 N         -2.7690074797       -0.5239322669       -1.5473525553
 C         -1.8076684856       -1.1164317617       -0.5737561148
 C         -1.3149363573       -0.1056976366        0.4574123346
 C         -0.5690444392        1.0873311202       -0.1460186889
 C          0.6919784293        0.6989863005       -0.9016433819
 I          2.1832983815       -0.2979074365        0.2568899267
 Cl        -5.2783002449        1.0800588304        0.3001993609
 H         -3.1651083330       -1.2323032830       -2.1804729574
 H         -2.3179841278        0.1958963052       -2.1278307135
 H         -3.5529242186       -0.0696844241       -1.0482508841
 H         -0.9582776892       -1.5491633902       -1.1141288854
 H         -2.2862239082       -1.9635407769       -0.0663403256
 H         -0.6614869639       -0.6065243765        1.1822431737
 H         -2.1719184691        0.2525056736        1.0410497421
 H         -0.2984878218        1.7923638508        0.6517632454
 H         -1.2443672858        1.6476912049       -0.8057270222
 H          1.1874914785        1.5751999391       -1.3267290642
 H          0.4627319250        0.0335274385       -1.7353692783
  18
        -25.48996321
 N         -3.1682429840       -2.5173470195       -0.7970803877
 C         -2.2426338883       -3.1797211286        0.1669692074
 C         -0.7769389943       -2.8451623642       -0.0933995299
 C         -0.4424605143       -1.3689179889        0.1353335493
 C          1.0277509694       -1.0508406028       -0.0729059185
 I          1.5492249908        1.0002619784        0.2189743481
 Cl        -3.0559706905        1.0010692653       -0.4510569423
 H         -3.1230192826       -1.4909794410       -0.7112098085
 H         -4.1466699069       -2.7963200228       -0.6431230776
 H         -2.9199664878       -2.7572605861       -1.7686999256
 H         -2.3938654206       -4.2655862111        0.1210637427
 H         -2.5108008150       -2.8900838816        1.1896658419
 H         -0.5154408529       -3.1219998760       -1.1209452675
 H         -0.1307515591       -3.4614409457        0.5437956076
 H         -0.7401157593       -1.0738055919        1.1495651641
 H         -1.0438732758       -0.7398350715       -0.5318872103
 H          1.3416555614       -1.3099116386       -1.0859296766
 H          1.6521416630       -1.6313562862        0.6089634799
  18
        -25.48984025
 N         -3.1627339856       -2.5196866910       -0.8014536008
 C         -2.2459230254       -3.1773601482        0.1741638608
 C         -0.7776631161       -2.8464747940       -0.0760307121
 C         -0.4449057227       -1.3674950609        0.1370440350
 C          1.0284020284       -1.0535299246       -0.0548737949
 I          1.5473545341        1.0014884527        0.2127646826
 Cl        -3.0496666415        0.9979383535       -0.4446950942
 H         -3.1188936811       -1.4929954694       -0.7187699819
 H         -4.1424359348       -2.7987464639       -0.6557405911
 H         -2.9049130155       -2.7631808251       -1.7696833486
 H         -2.3982328738       -4.2632977366        0.1341210275
 H         -2.5220433999       -2.8807083401        1.1927239236
 H         -0.5059779431       -3.1365305865       -1.0972752154
 H         -0.1381625873       -3.4547477123        0.5754384130
 H         -0.7565078903       -1.0580936435        1.1427966104
 H         -1.0362167459       -0.7472531549       -0.5472988053
 H          1.3566447558       -1.3285359600       -1.0591038189
 H          1.6424443472       -1.6236743982        0.6449146786
  18
        -25.48907306
 N         -3.0177458643       -0.5949435037        0.5816428450
 C         -1.8564872975       -0.8561939583       -0.3161941647
 C         -0.7831940970       -1.7211251302        0.3374620984
 C         -0.1499734887       -1.0944997985        1.5827798915
 C          0.5648125486        0.2192620520        1.3083591305
 I          2.1807127215        0.1072111835       -0.0829138338
 Cl        -5.4544108073        1.2656854089       -1.1544935458
 H         -2.7344092876       -0.0646290894        1.4165384572
 H         -3.4400417608       -1.4765540388        0.9026602334
 H         -3.7554247795       -0.0480406058        0.1025621319
 H         -1.4243925324        0.0967687208       -0.6416210265
 H         -2.2153307469       -1.3358084707       -1.2356029190
 H          0.0064734022       -1.9422200321       -0.3911413835
 H         -1.2185850851       -2.6944437993        0.5944698282
 H          0.5676354959       -1.7999916854        2.0233506386
 H         -0.9182310642       -0.9497130563        2.3534822218
 H          0.9922041209        0.6386260320        2.2223735374
 H         -0.1230081289        0.9679386383        0.9122610736
  18
        -25.48851205
 N         -1.2499166753       -4.0876223167        0.2676867184
 C         -2.0654304056       -3.0981178132       -0.4951775658
 C         -1.3821906755       -1.7391149963       -0.6201202192
 C         -1.2379740193       -1.0061033771        0.7139003675
 C         -0.5507905518        0.3429145543        0.5735411347
 I          1.4916616134        0.2582408705       -0.0449073879
 Cl        -2.6369534158        3.2107495360       -0.0437931665
 H         -1.1089907392       -3.7835300928        1.2390702497
 H         -0.3212497132       -4.1983786686       -0.1582118948
 H         -1.6985153753       -5.0158232103        0.2940822082
 H         -3.0425480134       -2.9769086450       -0.0130715041
 H         -2.2795963330       -3.5034665716       -1.4920263901
 H         -1.9335970479       -1.1009934189       -1.3218563745
 H         -0.3920853728       -1.8705521209       -1.0701897182
 H         -0.6670129598       -1.6256262571        1.4158382889
 H         -2.2290613816       -0.8836640589        1.1714335383
 H         -0.5495319737        0.8925716397        1.5178382535
 H         -1.0662581560        0.9658970318       -0.1596275614
  18
        -25.48815043
 N         -2.5727593058       -2.7892210069       -0.6498995037
 C         -2.0634686726       -1.7380814211        0.2790408497
 C         -0.6934499808       -2.0834759777        0.8485253797
 C         -0.1726084565       -1.0602011184        1.8626261036
 C          0.0805863375        0.3149373994        1.2647773868
 I          1.5202279548        0.3778866900       -0.3110105935
 Cl        -3.0589102213        1.7922912572       -0.2825181597
 H         -3.4974074990       -2.5500540023       -1.0294657988
 H         -2.6529658062       -3.6933827728       -0.1689349546
 H         -1.9282614299       -2.9165756868       -1.4432218693
 H         -2.7770251630       -1.5907950125        1.0983407379
 H         -2.0202139092       -0.7775818050       -0.2462546814
 H          0.0242409433       -2.1825257041        0.0265793932
 H         -0.7394853772       -3.0781879580        1.3081531121
 H          0.7611006019       -1.4273637370        2.3095583969
 H         -0.8838549439       -0.9812996608        2.6959026638
 H          0.4391684579        1.0181870061        2.0202826029
 H         -0.8355538676        0.7396020813        0.8516878939
  18
        -25.48800421
 N         -2.5140053165       -2.7462406216       -0.8145795874
 C         -2.1473581241       -1.4310661056       -0.2121187054
 C         -1.0995770233       -1.5686730533        0.8850145542
 C         -0.7406183461       -0.2426555307        1.5630054309
 C         -0.0726453561        0.7561557097        0.6307503933
 I          1.7698846304        0.1101725190       -0.2338432583
 Cl        -3.4954775870        1.8960879186        0.0806302760
 H         -1.6895189251       -3.1984732417       -1.2276736879
 H         -3.2225477795       -2.6457497105       -1.5524134456
 H         -2.8907088934       -3.3838146711       -0.0985929737
 H         -3.0438498569       -0.9473948059        0.1933361750
 H         -1.7834280159       -0.7589818455       -0.9972178121
 H         -0.1947613523       -2.0215831181        0.4647741021
 H         -1.4581505126       -2.2877994086        1.6314175098
 H         -0.0715906892       -0.4328805235        2.4130185243
 H         -1.6471804900        0.1989467645        1.9983837776
 H          0.1560401359        1.6917957105        1.1467577748
 H         -0.7245889023        1.0114448021       -0.2061432856
  18
        -25.48799044
 N         -2.5095566613       -2.7661451395       -0.8104793345
 C         -2.1467345201       -1.4531985170       -0.2007500381
 C         -1.0896673172       -1.5920560704        0.8873417348
 C         -0.7353673228       -0.2691180657        1.5736335180
 C         -0.0821473773        0.7424782934        0.6447739705
 I          1.7602047201        0.1202961257       -0.2375942723
 Cl        -3.4655064241        1.9035988824        0.0767600925
 H         -3.2248195628       -2.6641860587       -1.5414047459
 H         -2.8751931787       -3.4103351849       -0.0987344912
 H         -1.6833581369       -3.2108451735       -1.2355253137
 H         -3.0431707835       -0.9781717882        0.2149622258
 H         -1.7931368347       -0.7729989029       -0.9835819941
 H         -0.1846535370       -2.0346890852        0.4567203423
 H         -1.4373077663       -2.3198549454        1.6304951864
 H         -0.0583520368       -0.4612916998        2.4168835540
 H         -1.6418980468        0.1619704141        2.0195028760
 H          0.1411208343        1.6760417128        1.1667677884
 H         -0.7416476890        0.9983645036       -0.1859778295
  18
        -25.48780155
 N         -3.0094272619       -2.3755951411       -0.4785258585
 C         -1.7150909155       -3.1119656991       -0.5606125633
 C         -0.8397772889       -2.9150882132        0.6736884542
 C         -0.3568686030       -1.4737777547        0.8732291061
 C          0.5424791325       -0.9726070444       -0.2434531043
 I          1.4099143447        0.9502945839        0.0951978656
 Cl        -2.6540281562        1.1217081933       -0.3995106732
 H         -3.6110816195       -2.5660341157       -1.2914060866
 H         -2.8600338920       -1.3561185578       -0.4383018603
 H         -3.5310309035       -2.6437850366        0.3696705176
 H         -1.1716039701       -2.8005206956       -1.4597036465
 H         -1.9209984477       -4.1800359902       -0.7052496905
 H          0.0332504167       -3.5773029015        0.6186876888
 H         -1.3965670198       -3.2446007877        1.5590504345
 H          0.1851945607       -1.3890929986        1.8249094783
 H         -1.2154372268       -0.7997679877        0.9801043089
 H          0.0008529836       -0.9025816117       -1.1882982709
 H          1.3770116430       -1.6575903905       -0.4054005457
  18
        -25.48763019
 N         -3.0034163106       -2.2368098787        0.3244020852
 C         -1.7470129507       -2.0668957531       -0.4611027256
 C         -0.4912578209       -2.3299777096        0.3646187191
 C         -0.3074494608       -1.3724193930        1.5451942213
 C         -0.1455001205        0.0815800165        1.1313169867
 I          1.5440938455        0.4968186668       -0.1066809200
 Cl        -2.9968776784        1.5511534393       -0.8124321170
 H         -3.0472055709       -3.1741136942        0.7442861923
 H         -3.8410555238       -2.1146035567       -0.2607354685
 H         -3.0587050561       -1.5506544225        1.0922200083
 H         -1.7136448071       -1.0570996115       -0.8852344564
 H         -1.7718009039       -2.7399783599       -1.3273543030
 H          0.3935492490       -2.2731926342       -0.2811644242
 H         -0.5161685108       -3.3643145279        0.7286977615
 H          0.5750809930       -1.6722573695        2.1265844209
 H         -1.1537005691       -1.4740031048        2.2369643132
 H         -0.0398074483        0.7344089327        2.0011303044
 H         -1.0184797293        0.4338750716        0.5801719346
  18
        -25.48738885
 N         -2.8454130481       -2.1501495365        0.3589806595
 C         -1.7844226434       -2.8880057803       -0.3855360905
 C         -0.4758773294       -2.1073076315       -0.4708994741
 C          0.2040776010       -1.9118691697        0.8844098806
 C          1.5066397246       -1.1335459497        0.7844974325
 I          1.2947672023        0.9021598193        0.1736406007
 Cl        -3.0568380113        1.0142553965       -1.1232119209
 H         -2.9833185151       -1.2140501131       -0.0511572687
 H         -2.5876719399       -2.0168153022        1.3457569988
 H         -3.7514309262       -2.6440805430        0.3355912671
 H         -2.1493334551       -3.1186505122       -1.3944196232
 H         -1.6072370869       -3.8591013537        0.0909271308
 H         -0.6665736753       -1.1282620227       -0.9247319457
 H          0.2208694371       -2.6093372941       -1.1533777914
 H          0.3797514995       -2.8919408612        1.3483891212
 H         -0.4750297175       -1.3841143500        1.5647946581
 H          2.1852798328       -1.6015475251        0.0689746782
 H          2.0271915225       -1.0987708820        1.7444745647
  18
        -25.48724528
 N         -2.6165698988       -2.3271739546       -0.9318383661
 C         -2.0478347841       -0.9646048940       -0.7149582695
 C         -1.3729686455       -0.8287707868        0.6440224469
 C         -0.8461794708        0.5805262494        0.9322349604
 C          0.2519424786        1.0271602791       -0.0202446079
 I          2.0094280117       -0.1860711964       -0.0243433478
 Cl        -4.3232391337        1.8367681257        0.2017346514
 H         -1.8803226040       -3.0409929132       -0.8741109622
 H         -3.0682418088       -2.4123455406       -1.8512357976
 H         -3.3195001588       -2.5485020362       -0.2121396120
 H         -2.8411044502       -0.2139882385       -0.8096313959
 H         -1.3337314430       -0.7355288451       -1.5137400408
 H         -0.5493399274       -1.5482511560        0.7105709121
 H         -2.0805617669       -1.1323945421        1.4250258470
 H         -0.4621126102        0.6267646007        1.9602013411
 H         -1.6811225102        1.2933337726        0.9007928278
 H          0.5932025622        2.0389685086        0.2116499219
 H         -0.1045191838        1.0459611132       -1.0514049971
  18
        -25.48689655
 N         -2.0113236697       -3.3405389646        0.0540844230
 C         -2.5597740226       -2.0666754368       -0.4958921194
 C         -1.5289049560       -0.9417805088       -0.5249086203
 C         -1.0964761952       -0.4777526580        0.8663307164
 C         -0.0837763042        0.6557929485        0.8221571268
 I          1.8051065504        0.1477964421       -0.0359311638
 Cl        -3.3833539205        2.1844864227       -0.1734068224
 H         -1.7246153850       -3.2293678075        1.0346035042
 H         -1.1836597845       -3.6389922314       -0.4769135000
 H         -2.7033511138       -4.1042646868        0.0167155805
 H         -3.4290755837       -1.7549232516        0.0948740642
 H         -2.9439907130       -2.2495010093       -1.5072383857
 H         -1.9221503809       -0.0830566912       -1.0829996951
 H         -0.6484312824       -1.2694734013       -1.0882975608
 H         -0.6648187927       -1.3208516796        1.4189005642
 H         -1.9824047320       -0.1749117831        1.4408052708
 H          0.1396378928        1.0326718564        1.8230786702
 H         -0.4676039201        1.4969258899        0.2418245680
  18
        -25.48660640
 N         -2.0821126691       -3.2553028877        0.0619826853
 C         -2.5738085504       -1.9880247287       -0.5528835864
 C         -1.5085732764       -0.8957908032       -0.5896554340
 C         -1.1127451198       -0.3872818636        0.7969580933
 C         -0.0673519279        0.7157666864        0.7448876526
 I          1.8426321889        0.1158515996        0.0006404565
 Cl        -3.4860104451        2.1477330438       -0.2002086941
 H         -1.8155742014       -3.1125703476        1.0440450425
 H         -1.2523970998       -3.6026896331       -0.4349998164
 H         -2.7984897387       -3.9967696144        0.0381558637
 H         -3.4513575353       -1.6284703480       -0.0028488693
 H         -2.9315497373       -2.1981153895       -1.5686308180
 H         -1.8553742097       -0.0497925642       -1.1959642546
 H         -0.6188555160       -1.2718440246       -1.1063219501
 H         -0.7253323578       -1.2182945696        1.3985567318
 H         -2.0096670549       -0.0371587255        1.3256711201
 H          0.1221020212        1.1348917468        1.7359366050
 H         -0.4010053385        1.5373758092        0.1082755931
  18
        -25.48657082
 N         -2.6296431807       -2.2842291040       -0.9511534032
 C         -2.0374468177       -0.9220393511       -0.8058838435
 C         -1.4070880325       -0.7082443394        0.5644123269
 C         -0.8476927227        0.7027487392        0.7717480684
 C          0.3092148876        1.0416181431       -0.1552775003
 I          2.0255701893       -0.2162408099        0.0269738793
 Cl        -4.3881356196        1.8049276422        0.2146741220
 H         -3.3565683842       -2.4429369151       -0.2430116526
 H         -1.9116081235       -3.0077400122       -0.8237894985
 H         -3.0565001506       -2.4211435052       -1.8793533010
 H         -2.8092129652       -0.1630005981       -0.9793171015
 H         -1.2910673730       -0.7628506743       -1.5920095286
 H         -0.6088174254       -1.4439223247        0.7126176173
 H         -2.1509980608       -0.9349627575        1.3377526733
 H         -0.5116590444        0.8165188858        1.8111854527
 H         -1.6558604328        1.4355554915        0.6450524643
 H          0.6706684275        2.0587503256        0.0143895471
 H          0.0045608628        0.9882548827       -1.2016926304
  18
        -25.48654128
 N         -2.1059284746       -3.2319142692        0.0672356717
 C         -2.5773494038       -1.9689884827       -0.5720640272
 C         -1.5018799976       -0.8869232066       -0.6097950446
 C         -1.1171269378       -0.3649255975        0.7749362118
 C         -0.0649987812        0.7316848487        0.7208119977
 I          1.8516033104        0.1093255458        0.0122802410
 Cl        -3.5071493860        2.1333051096       -0.2099923198
 H         -2.8260011672       -3.9656560546        0.0418408266
 H         -1.8536722731       -3.0783981747        1.0515895386
 H         -1.2691253284       -3.5935302188       -0.4133612154
 H         -3.4588420253       -1.5934949646       -0.0392798558
 H         -2.9231510335       -2.1901583719       -1.5895989275
 H         -1.8346420188       -0.0453388882       -1.2299669611
 H         -0.6098682671       -1.2768579423       -1.1120126993
 H         -0.7406252847       -1.1911667781        1.3899027457
 H         -2.0173345416       -0.0037596686        1.2904698416
 H          0.1130188488        1.1648601366        1.7079106877
 H         -0.3856705918        1.5455951331        0.0678672242
  18
        -25.48621137
 N         -2.6343619636       -2.2800157023       -0.9580458262
 C         -2.0296804965       -0.9192573111       -0.8573014746
 C         -1.4263077779       -0.6547196445        0.5163036620
 C         -0.8531866308        0.7570027600        0.6758461135
 C          0.3323259442        1.0395305959       -0.2337147007
 I          2.0283982560       -0.2254881707        0.0562839837
 Cl        -4.3988701877        1.7930624909        0.2229753376
 H         -3.0391809886       -2.4518514309       -1.8870144086
 H         -3.3797861376       -2.4004233765       -0.2615110015
 H         -1.9259904822       -3.0068204804       -0.7818691984
 H         -2.7886658426       -0.1598938201       -1.0792550012
 H         -1.2648173536       -0.8015440836       -1.6329096206
 H         -0.6411888124       -1.3930458784        0.7135123739
 H         -2.1898340840       -0.8389936054        1.2817530532
 H         -0.5430480261        0.9129602318        1.7178543661
 H         -1.6476089683        1.4934562179        0.4950068074
 H          0.7007801084        2.0597970041       -0.1022444970
 H          0.0559105581        0.9393605919       -1.2845260171
  18
        -25.48611840
 N         -2.1489911227       -3.1320722100        0.0391783490
 C         -2.6008438864       -1.8467226996       -0.5688827165
 C         -1.5001768007       -0.7901499219       -0.6047543336
 C         -1.0936751965       -0.2901332530        0.7818830480
 C         -0.0015942220        0.7667952186        0.7312854209
 I          1.8886329640        0.0749672214        0.0160001382
 Cl        -3.6451708191        2.0772891840       -0.2201706140
 H         -1.8746567019       -3.0024644052        1.0209433948
 H         -1.3326729276       -3.5040700830       -0.4621764441
 H         -2.8892152923       -3.8497078916        0.0145354983
 H         -3.4644853160       -1.4605274922       -0.0149256389
 H         -2.9682105920       -2.0408222931       -1.5843573659
 H         -1.8162579464        0.0648591787       -1.2151997503
 H         -0.6214519012       -1.1971739584       -1.1166923584
 H         -0.7466618362       -1.1328867368        1.3916553319
 H         -1.9788632345        0.1009267115        1.3016374095
 H          0.1948413874        1.1871326599        1.7204629059
 H         -0.2926886043        1.5957967420        0.0834641586
  18
        -25.48593842
 N         -2.6360531764       -2.2724356075       -0.9622380157
 C         -2.0200522552       -0.9149695400       -0.8902509822
 C         -1.4381244009       -0.6161574058        0.4855618116
 C         -0.8534235999        0.7940046992        0.6138856492
 C          0.3503951064        1.0383119272       -0.2825996397
 I          2.0289592151       -0.2326912587        0.0749460610
 Cl        -4.4064209644        1.7839791686        0.2282476933
 H         -1.9401797778       -2.9980506932       -0.7519067333
 H         -3.0254016214       -2.4680425685       -1.8932092671
 H         -3.3976211458       -2.3656414600       -0.2748343231
 H         -2.7676012882       -0.1553936138       -1.1475707915
 H         -1.2405577772       -0.8271808205       -1.6551970958
 H         -0.6641734373       -1.3560013550        0.7180721561
 H         -2.2167622749       -0.7704637946        1.2423714270
 H         -0.5597345865        0.9774622468        1.6561829404
 H         -1.6370636800        1.5324914518        0.3977070412
 H          0.7262982139        2.0586658872       -0.1751259894
 H          0.0914141136        0.9092009960       -1.3346988014
  18
        -25.48589078
 N         -2.8276886395       -2.7919006866       -0.9560908735
 C         -2.5837728973       -1.3829582581       -0.5295124029
 C         -1.1674351746       -0.9174822802       -0.8437580867
 C         -0.8980922311        0.5220920092       -0.4023586473
 C          0.5276149278        0.9706636807       -0.6805107210
 I          2.0344902686       -0.0568757194        0.4318810739
 Cl        -4.2736340423        1.8462475189       -0.0985546129
 H         -2.6853473731       -2.8955322369       -1.9680340462
 H         -3.7843534734       -3.0985685547       -0.7383471791
 H         -2.1741455445       -3.4333138052       -0.4844316834
 H         -2.7747515702       -1.2833932909        0.5455818929
 H         -3.3072124184       -0.7179967524       -1.0154796557
 H         -0.9763650729       -1.0165511115       -1.9182603705
 H         -0.4471589646       -1.5897385014       -0.3648395751
 H         -1.1046032798        0.6177473131        0.6711910288
 H         -1.6122832568        1.1941342248       -0.8971473614
 H          0.6654974005        2.0299283447       -0.4508852646
 H          0.7776924155        0.8363933204       -1.7345627648
  18
        -25.48585658
 N         -2.9482270130       -2.3877569190        0.4168509337
 C         -1.7630294477       -2.0987699498       -0.4412941329
 C         -0.4387725621       -2.3811732550        0.2619116131
 C         -0.1975477644       -1.5238959460        1.5074260358
 C         -0.1156274052       -0.0339929560        1.2155597408
 I          1.4672780558        0.5538254067       -0.0917404297
 Cl        -2.8196923394        1.5607033886       -0.8968833827
 H         -3.8320422269       -2.2502183403       -0.0913238988
 H         -2.9673998084       -1.7755530073        1.2426910190
 H         -2.9265024902       -3.3616405962        0.7539350228
 H         -1.7971218003       -1.0554214304       -0.7742336427
 H         -1.8318403530       -2.6942601428       -1.3603689868
 H          0.3910551249       -2.2316872751       -0.4396914757
 H         -0.4000112235       -3.4435634464        0.5318618968
 H          0.7360983208       -1.8380276158        1.9936455395
 H         -0.9849107462       -1.7191835399        2.2469688391
 H          0.0303591386        0.5441711153        2.1311695897
 H         -1.0375007019        0.3298417761        0.7596463605
