22
 energy: -34.800493798966 gnorm: 0.000508606607 xtb: 6.5.1 (fef0646)
N            1.13027407770563        0.34206556198436        0.17060358386940
C            2.59722213604180        0.49333909695879        0.11905351511166
C            3.06525668458227        0.47846195870239       -1.33684171443261
C            4.56446745045702        0.41258830872966       -1.40490928296524
C            5.21342330890599       -0.81128478220689       -1.29270455880553
C            6.59380417843095       -0.89111879521065       -1.32581287520992
C            7.33112255941740        0.27192651316835       -1.46964872330632
Cl           9.07487687719715        0.17940155961587       -1.52062604356468
C            6.71017632664931        1.50308491981897       -1.57988777754695
C            5.32763589434912        1.56458781556090       -1.54452522254409
Cl           0.40980319182542       -2.32557900880405       -1.13593605207519
H            0.78725045352475        0.32598720990861        1.13356705045681
H            0.85768332376120       -0.57015529160759       -0.27950212320212
H            0.66657722773924        1.09065004137814       -0.35008272000690
H            3.05221121172031       -0.34353835170015        0.64802783375654
H            2.89206205536183        1.42546317829657        0.60173662443966
H            2.71453230691413        1.37093949942660       -1.85341103320160
H            2.63645387011767       -0.40085858651778       -1.82050385975785
H            4.63199113610238       -1.71487087451243       -1.18780167530384
H            7.09367640858516       -1.84304140374059       -1.24383557229797
H            7.30111475881298        2.39736730598050       -1.69373938752196
H            4.84396456179471        2.52459412475499       -1.63508998588836
