25
 energy: -33.066721102438 gnorm: 0.000156176615 xtb: 6.5.1 (fef0646)
N            2.83653359619966       -1.35940934685602       -1.86935474929681
C            2.44535271747065       -0.47004840735525       -0.74919535532809
C            2.95249732672245       -1.04550731175685        0.57272722884448
C            4.45847919882371       -1.07059237877881        0.61803537731575
C            5.17458436255802        0.09553465331251        0.84892835245898
C            6.55842822668366        0.09825616665676        0.88035737697166
C            7.25644880722958       -1.08798297536328        0.68035370518566
O            8.61756433576399       -1.21215930438612        0.69750643758504
C            9.39919726460552       -0.06641238714587        0.96214526567061
C            6.54533079173636       -2.26465328438198        0.44330164644527
C            5.16619491702399       -2.25115580286415        0.41048109350191
H            2.58740539111100       -0.94646870886788       -2.77476101163091
H            2.37139348022537       -2.27032658174123       -1.78018574638370
H            3.85231855196401       -1.51422139412493       -1.83733439617316
H            1.36055283107593       -0.37743794372453       -0.72353671450695
H            2.88208592538270        0.51535304393862       -0.90891435236022
H            2.56302738860296       -2.05259615530075        0.71866607120479
H            2.57898073644300       -0.42392281430787        1.38561797868709
H            4.65075619606107        1.02375041475782        1.02141567197235
H            7.08095090894738        1.02184662673056        1.07098244802687
H           10.43169033915598       -0.40874599831980        0.94561285199096
H            9.17110833902493        0.35143541705261        1.94673655231796
H            9.25694236737957        0.69756008475544        0.19272843418372
H            7.10348355820667       -3.17592908519730        0.29746599898713
H            4.64205244160197       -3.18105652673144        0.24921983432939
