  19
        -26.17834195
 N         -0.1555644444       -1.3768648768        1.1297759192
 C         -0.9538449229       -1.8393316330       -0.0352860289
 C         -1.2379602676       -0.7239780439       -1.0389515940
 C         -2.1572703827        0.3815237229       -0.4844194706
 C         -1.4242127083        1.6586561537       -0.0838893621
 O         -0.4394364775        1.4700386388        0.9128476908
 Cl         2.5711563477        0.1678256415       -0.2951741112
 H          0.7638909380       -1.0249644862        0.8153706086
 H          0.0096676970       -2.1250520819        1.8209647962
 H         -0.6307339272       -0.5896352430        1.6142178937
 H         -1.9004921025       -2.2660822807        0.3169555185
 H         -0.4247452220       -2.6673936951       -0.5257562469
 H         -1.6817584227       -1.1598912119       -1.9451215072
 H         -0.2928865864       -0.2811369863       -1.3755642487
 H         -2.7020140320       -0.0064732000        0.3844308832
 H         -2.9363015203        0.6304722651       -1.2181786481
 H         -2.1311646151        2.3966589585        0.3160044494
 H         -0.9594791861        2.1322064281       -0.9580818868
 H          0.3822210016        1.0908546205        0.5205938200
