  21
        -29.94430003
 N         -2.9721017181       -0.8815585552       -1.0130430240
 C         -2.9693031324        0.4201994296       -0.2838488843
 C         -2.0337417326        0.4267899746        0.9257055452
 C         -0.5875737774        0.2527402474        0.5646100231
 C          0.1388039801        1.3109743473        0.0220328278
 C          1.4660215757        1.1578116878       -0.3181829901
 C          2.1021236731       -0.0653756235       -0.1252926565
 F          3.3697701588       -0.2197969238       -0.4650920708
 C          1.3854059779       -1.1271415808        0.4189847582
 C          0.0578453078       -0.9681606232        0.7566645082
 H         -3.6063404250       -0.8609413729       -1.8258014563
 H         -3.2822775517       -1.6502999654       -0.4008993704
 H         -2.0295367851       -1.1176546062       -1.3617322636
 H         -3.9954415318        0.6536398142        0.0284387147
 H         -2.6815914288        1.2185004390       -0.9781443694
 H         -2.3303153148       -0.3664514290        1.6193010709
 H         -2.1458862926        1.3597019131        1.4895930346
 H         -0.3425061159        2.2642806460       -0.1213871646
 H          2.0370208308        1.9739077863       -0.7312276971
 H          1.8951887454       -2.0644935582        0.5740514057
 H         -0.4853169241       -1.7931884109        1.1876671499
