  21
  -29.944300030000001        8.1999501736704214E-002 !mtd1
 N         -2.9721017181       -0.8815585552       -1.0130430240
 C         -2.9693031324        0.4201994296       -0.2838488843
 C         -2.0337417326        0.4267899746        0.9257055452
 C         -0.5875737774        0.2527402474        0.5646100231
 C          0.1388039801        1.3109743473        0.0220328278
 C          1.4660215757        1.1578116878       -0.3181829901
 C          2.1021236731       -0.0653756235       -0.1252926565
 F          3.3697701588       -0.2197969238       -0.4650920708
 C          1.3854059779       -1.1271415808        0.4189847582
 C          0.0578453078       -0.9681606232        0.7566645082
 H         -3.6063404250       -0.8609413729       -1.8258014563
 H         -3.2822775517       -1.6502999654       -0.4008993704
 H         -2.0295367851       -1.1176546062       -1.3617322636
 H         -3.9954415318        0.6536398142        0.0284387147
 H         -2.6815914288        1.2185004390       -0.9781443694
 H         -2.3303153148       -0.3664514290        1.6193010709
 H         -2.1458862926        1.3597019131        1.4895930346
 H         -0.3425061159        2.2642806460       -0.1213871646
 H          2.0370208308        1.9739077863       -0.7312276971
 H          1.8951887454       -2.0644935582        0.5740514057
 H         -0.4853169241       -1.7931884109        1.1876671499
  21
  -29.944293670000000        8.1449488220615693E-002 !mtd3
 N         -2.9578335796        1.0315951022        0.9349781118
 C         -2.9789331703       -0.3198234250        0.3028787978
 C         -2.0420728312       -0.4329095331       -0.9004158939
 C         -0.5922161858       -0.2740981650       -0.5471721113
 C          0.0807925293        0.9202332158       -0.7988748241
 C          1.4113937196        1.0654683185       -0.4684754255
 C          2.1043107961        0.0158313885        0.1283464300
 F          3.3756091660        0.1579631631        0.4597565072
 C          1.4408039551       -1.1811854928        0.3816201729
 C          0.1098791725       -1.3206501593        0.0486257949
 H         -3.5932952939        1.0824990538        1.7454456231
 H         -3.2526857024        1.7592161197        0.2674825812
 H         -2.0114117898        1.2748475138        1.2679133976
 H         -4.0090245397       -0.5554861654        0.0056212380
 H         -2.7076492752       -1.0707375209        1.0543157317
 H         -2.3160778214        0.3192855841       -1.6469903491
 H         -2.1786041806       -1.3984109579       -1.4004536842
 H         -0.4432615239        1.7348091549       -1.2705833399
 H          1.9423666769        1.9821500570       -0.6692338469
 H          1.9932148909       -1.9886394434        0.8349790240
 H         -0.3935634458       -2.2544116324        0.2395192033
  21
  -29.944293200000001        8.1408989261287659E-002 !mtd1
 N         -2.9766766203       -0.8094927293        1.0757174134
 C         -2.9680519405        0.4396841916        0.2597550703
 C         -2.0348726558        0.3589659980       -0.9489864992
 C         -0.5879284774        0.2114658584       -0.5792668999
 C          0.1423881032        1.3087745260       -0.1270636015
 C          1.4704567896        1.1808824134        0.2201784914
 C          2.1033997364       -0.0554372990        0.1258427726
 F          3.3721354591       -0.1843945183        0.4721295522
 C          1.3826017818       -1.1565370874       -0.3272854707
 C          0.0542653556       -1.0225670613       -0.6727184954
 H         -3.2929702016       -1.6160015314        0.5179544840
 H         -3.6087383688       -0.7299137738        1.8867318707
 H         -2.0346548883       -1.0272202348        1.4375581317
 H         -2.6746911010        1.2816813922        0.8975629995
 H         -3.9936944097        0.6568987175       -0.0660602989
 H         -2.1482287197        1.2491180206       -1.5784007644
 H         -2.3327537141       -0.4818391077       -1.5830659633
 H         -0.3366705690        2.2716214394       -0.0602561105
 H          2.0445360614        2.0267532347        0.5631078804
 H          1.8899397669       -2.1046289399       -0.4065287626
 H         -0.4919836184       -1.8788587352       -1.0330271193
  21
  -29.944291990000000        8.1304818613625054E-002 !mtd3
 N         -2.9611555993       -0.0505405122       -1.3675493012
 C         -2.9811034566       -0.4247871609        0.0766908739
 C         -2.0337259790        0.4218239011        0.9276117688
 C         -0.5875649967        0.2469410089        0.5668943160
 C          0.0884662750        1.2137828896       -0.1754179153
 C          1.4156448908        1.0485110530       -0.5101059284
 C          2.1018857394       -0.0955197980       -0.1122110168
 F          3.3692747327       -0.2639408896       -0.4462633938
 C          1.4354549330       -1.0651737744        0.6313508300
 C          0.1080746828       -0.8939871568        0.9637034950
 H         -3.6035507416       -0.6368503317       -1.9214743246
 H         -2.0187719346       -0.1601586330       -1.7690764951
 H         -3.2481415173        0.9322314012       -1.5022035427
 H         -2.7190814861       -1.4847188050        0.1752138638
 H         -4.0093025084       -0.3368229193        0.4513065885
 H         -2.1623453720        0.1865902156        1.9903930173
 H         -2.3042567829        1.4779276467        0.8316325922
 H         -0.4303485159        2.1078509850       -0.4790210012
 H          1.9489953036        1.7962373582       -1.0748994799
 H          1.9828107314       -1.9410385220        0.9410697257
 H         -0.3974264309       -1.6452851666        1.5483404315
  21
  -29.944291249999999        8.1241176643342197E-002 !mtd4
 N         -2.9724653727       -0.0208081082       -1.3680148635
 C         -2.9796594484       -0.4279247302        0.0674443102
 C         -2.0329414315        0.4061762542        0.9314088481
 C         -0.5864914295        0.2371015122        0.5690822929
 C          0.0815768166        1.2005059301       -0.1847130240
 C          1.4090080537        1.0402180986       -0.5208673626
 C          2.1036573232       -0.0949938515       -0.1124217416
 F          3.3723952738       -0.2569421600       -0.4445531785
 C          1.4449670992       -1.0615788819        0.6419493135
 C          0.1171673055       -0.8956366606        0.9752770172
 H         -3.2673077805        0.9603171543       -1.4779205505
 H         -3.6143732206       -0.5993878735       -1.9308419052
 H         -2.0302492065       -0.1142801858       -1.7793688373
 H         -2.7091736734       -1.4878105105        0.1403618108
 H         -4.0060139042       -0.3560039064        0.4504739326
 H         -2.1620566527        0.1547326734        1.9904114285
 H         -2.3037012489        1.4635561931        0.8515619864
 H         -0.4437098183        2.0880951480       -0.4960377072
 H          1.9362950167        1.7854702701       -1.0945437318
 H          1.9987024070       -1.9305796842        0.9595862475
 H         -0.3824631394       -1.6445455647        1.5680003268
  21
  -29.944290609999999        8.1186175114034823E-002 !mtd3
 N         -2.9690888640       -0.7910784416        1.0913977183
 C         -2.9686150779        0.4431049732        0.2529241548
 C         -2.0357809370        0.3459176231       -0.9548422005
 C         -0.5888057370        0.2035731428       -0.5832755409
 C          0.1386678096        1.3044275922       -0.1352018025
 C          1.4665456737        1.1808026600        0.2143145511
 C          2.1022045022       -0.0545847492        0.1262109771
 F          3.3705453350       -0.1795762699        0.4753800888
 C          1.3844253971       -1.1591140661       -0.3233461929
 C          0.0562051660       -1.0294480965       -0.6708183503
 H         -2.0274861383       -0.9958673617        1.4553501317
 H         -3.2809056389       -1.6096564518        0.5486283815
 H         -3.6021054545       -0.7005804026        1.9032707381
 H         -2.6797696781        1.2981425332        0.8752532023
 H         -3.9957277078        0.6484904462       -0.0758900790
 H         -2.1494114837        1.2272268591       -1.5965290202
 H         -2.3336606170       -0.5037120625       -1.5770567927
 H         -0.3424970418        2.2665409496       -0.0732422537
 H          2.0383236695        2.0293086243        0.5545575860
 H          1.8939395211       -2.1064043225       -0.3981045443
 H         -0.4877560594       -1.8885123370       -1.0279987078
  21
  -29.944289730000001        8.1110608807054355E-002 !mtd1
 N         -2.9710857416       -0.7797892158        1.0983897110
 C         -2.9687562552        0.4464298543        0.2482844661
 C         -2.0354363162        0.3366919883       -0.9580456283
 C         -0.5886022728        0.1976024693       -0.5846262132
 C          0.1370237173        1.3013312469       -0.1406486123
 C          1.4649031125        1.1811153089        0.2100403435
 C          2.1024938988       -0.0536238906        0.1269876743
 F          3.3711385328       -0.1750344830        0.4763324565
 C          1.3865690098       -1.1610328384       -0.3184147596
 C          0.0583311914       -1.0347786248       -0.6670998747
 H         -3.6030650924       -0.6810333588        1.9071659882
 H         -2.0297116768       -0.9823649334        1.4645927710
 H         -3.2843147899       -1.6047984284        0.5621257616
 H         -2.6792707107        1.3070171172        0.8626084953
 H         -3.9954626878        0.6497951792       -0.0830469759
 H         -2.1484634514        1.2114665202       -1.6087185571
 H         -2.3335057269       -0.5190958125       -1.5716658715
 H         -0.3455162783        2.2630227204       -0.0830439372
 H          2.0352755968        2.0318588994        0.5470380769
 H          1.8975786727       -2.1078144524       -0.3893468743
 H         -0.4840433676       -1.8959912675       -1.0215194827
  21
  -29.944288610000001        8.1014535223265391E-002 !mtd2
 N         -2.9793528970       -0.8896389277       -1.0045358353
 C         -2.9686115067        0.4187543899       -0.2873890807
 C         -2.0330418700        0.4310022821        0.9221393461
 C         -0.5868177543        0.2553317362        0.5620194975
 C          0.1425672209        1.3145507853        0.0253698390
 C          1.4700272297        1.1602583781       -0.3133676186
 C          2.1032993269       -0.0651252637       -0.1252185153
 F          3.3717512519       -0.2200656812       -0.4617513465
 C          1.3833656281       -1.1281116295        0.4124148998
 C          0.0556544082       -0.9678879202        0.7489632341
 H         -2.0401351317       -1.1346343428       -1.3492710186
 H         -3.6127925600       -0.8724586709       -1.8181942680
 H         -3.2958095984       -1.6522726483       -0.3843779175
 H         -3.9934054198        0.6608858454        0.0226860150
 H         -2.6762190174        1.2090434851       -0.9888667553
 H         -2.3297384845       -0.3587575994        1.6196330772
 H         -2.1451494886        1.3666743510        1.4814451190
 H         -0.3366748932        2.2694580907       -0.1143210942
 H          2.0434881479        1.9772970275       -0.7211144052
 H          1.8909378688       -2.0673112625        0.5634913798
 H         -0.4898370974       -1.7938744609        1.1751438573
  21
  -29.944285550000000        8.0752628249828540E-002 !mtd4
 N         -2.9575322743        1.0124964672        0.9544806491
 C         -2.9792354331       -0.3260673543        0.2956390067
 C         -2.0418351878       -0.4157825236       -0.9092002940
 C         -0.5921535492       -0.2634920998       -0.5523584395
 C          0.0825011527        0.9334032705       -0.7869643896
 C          1.4130148204        1.0723898506       -0.4535351180
 C          2.1042152723        0.0137578693        0.1292218375
 F          3.3755397559        0.1496043403        0.4631554466
 C          1.4390661625       -1.1858418713        0.3653828834
 C          0.1082784064       -1.3190634912        0.0292994070
 H         -2.0130314349        1.2480249000        1.2912804076
 H         -3.5929732259        1.0476691184        1.7659985063
 H         -3.2527177682        1.7550300988        0.3003684169
 H         -4.0093411569       -0.5550182681       -0.0067516575
 H         -2.7088916243       -1.0919861259        1.0321207938
 H         -2.3157332232        0.3506434028       -1.6411953898
 H         -2.1779248106       -1.3714910022       -1.4278254601
 H         -0.4401439745        1.7550839671       -1.2477962142
 H          1.9452947022        1.9910668533       -0.6412971542
 H          1.9901878403       -2.0002503632        0.8077349947
 H         -0.3963289460       -2.2548996858        0.2064463950
  21
  -29.944282919999999        8.0528201891239590E-002 !mtd6
 N         -2.9799317526       -0.8929502728       -1.0017455035
 C         -2.9683531305        0.4176588534       -0.2886817157
 C         -2.0330224664        0.4330741292        0.9209971258
 C         -0.5867098816        0.2567552978        0.5615797827
 C          0.1440139169        1.3162805187        0.0273453239
 C          1.4715247499        1.1613559705       -0.3109066972
 C          2.1034372682       -0.0650529648       -0.1248671408
 F          3.3715995264       -0.2209318529       -0.4620609461
 C          1.3821775984       -1.1283419658        0.4103899121
 C          0.0544164430       -0.9674758258        0.7464303591
 H         -3.2958065016       -1.6517442601       -0.3804085657
 H         -2.0408193993       -1.1394782847       -1.3461309659
 H         -3.6149693453       -0.8780682677       -1.8169383687
 H         -3.9930425778        0.6614887327        0.0204082923
 H         -2.6752461962        1.2055172606       -0.9925902719
 H         -2.3296809171       -0.3549559271        1.6204621438
 H         -2.1454142611        1.3701314764        1.4779201292
 H         -0.3342691442        2.2718646310       -0.1110186452
 H          2.0459582438        1.9785436319       -0.7169829910
 H          1.8886795381       -2.0684005236        0.5596971534
 H         -0.4922360189       -1.7938236128        1.1704108109
  21
  -29.944279340000001        8.0223711003066189E-002 !mtd2
 N         -2.9530546896        0.9426779851        1.0214473907
 C         -2.9803639317       -0.3457233601        0.2694619739
 C         -2.0415721818       -0.3543502070       -0.9376132349
 C         -0.5923423091       -0.2258352992       -0.5696971272
 C          0.0879865509        0.9781929549       -0.7438844861
 C          1.4181128878        1.0950874147       -0.4005839053
 C          2.1032185191        0.0063005811        0.1315978661
 F          3.3744366215        0.1198377026        0.4741528823
 C          1.4323966643       -1.2005179056        0.3071689566
 C          0.1021172111       -1.3116265430       -0.0387996071
 H         -3.2429760355        1.7291874255        0.4223417667
 H         -2.0076741284        1.1492013722        1.3749035867
 H         -3.5906853110        0.9235487080        1.8345314451
 H         -4.0110268176       -0.5480037327       -0.0495667993
 H         -2.7146966982       -1.1629605235        0.9503664448
 H         -2.3150014849        0.4593201160       -1.6168912050
 H         -2.1766460638       -1.2732547623       -1.5192008726
 H         -0.4299190514        1.8236763066       -1.1653569213
 H          1.9547168111        2.0195401092       -0.5419856826
 H          1.9788297433       -2.0378003887        0.7109389817
 H         -0.4067342430       -2.2529286609        0.0907887156
  21
  -29.944271789999998        7.9585327545173709E-002 !mtd4
 N         -2.9610756868       -0.0614999037       -1.3663235839
 C         -2.9818981519       -0.4242646955        0.0808163137
 C         -2.0335518903        0.4277367186        0.9252781993
 C         -0.5876356569        0.2503864376        0.5646655184
 C          0.0917358355        1.2186464347       -0.1727823114
 C          1.4190127003        1.0516090246       -0.5062108210
 C          2.1019951214       -0.0956502301       -0.1120265480
 F          3.3695736038       -0.2655028434       -0.4446386906
 C          1.4322385142       -1.0667115917        0.6266862976
 C          0.1048091388       -0.8937061751        0.9578913118
 H         -2.0191961089       -0.1770809695       -1.7669875592
 H         -3.2444430839        0.9190402692       -1.5081990179
 H         -3.6067516325       -0.6514554338       -1.9168733690
 H         -2.7214045435       -1.4837539225        0.1876569971
 H         -4.0100572559       -0.3319178258        0.4544850743
 H         -2.1612489437        0.1995068300        1.9896975040
 H         -2.3040991043        1.4831943871        0.8225160730
 H         -0.4245973535        2.1151136773       -0.4735438995
 H          1.9549039352        1.8003561908       -1.0672378732
 H          1.9771041565       -1.9451530054        0.9334785857
 H         -0.4032911531       -1.6462346202        1.5386628266
  21
  -29.941577179999999        4.5970157672953734E-003 !mtd2
 N         -4.2195415529       -0.1660810561       -0.4595236230
 C         -2.7412299759       -0.2243016509       -0.6669824446
 C         -1.9489570611        0.1829698665        0.5727314952
 C         -0.4615151480        0.1227821019        0.3764852057
 C          0.2389198602        1.2277401405       -0.1039405478
 C          1.6021749338        1.1700010957       -0.3012899566
 C          2.3011899985       -0.0022160407       -0.0265532290
 F          3.6069574967       -0.0620804963       -0.2204544868
 C          1.6090410245       -1.1121565692        0.4492217790
 C          0.2454213100       -1.0484984272        0.6446481208
 H         -4.5144651358       -0.7945906842        0.3015505842
 H         -4.7355368419       -0.4439303492       -1.3078918791
 H         -4.5247426468        0.7880702658       -0.2096846571
 H         -2.4674977550        0.4216893601       -1.5093961120
 H         -2.4573551186       -1.2390530080       -0.9701138908
 H         -2.2291601869       -0.4568684971        1.4155460479
 H         -2.2336761385        1.1952718955        0.8759383134
 H         -0.2934322476        2.1398991247       -0.3173052436
 H          2.1526022235        2.0222824472       -0.6662846239
 H          2.1644152089       -2.0119020986        0.6603998037
 H         -0.2821290737       -1.9122149135        1.0153252505
  21
  -29.941577079999998        4.5965293391898093E-003 !mtd2
 N         -4.2191387070       -0.1563577226       -0.4635400651
 C         -2.7406999939       -0.2165907158       -0.6696079013
 C         -1.9490048529        0.1736706425        0.5759566412
 C         -0.4615104914        0.1166836902        0.3791958572
 C          0.2346521218        1.2210270144       -0.1087655825
 C          1.5977189385        1.1665589554       -0.3080268867
 C          2.3009379720       -0.0016897142       -0.0272006864
 F          3.6067018172       -0.0581390752       -0.2217341581
 C          1.6130968334       -1.1110295303        0.4563507553
 C          0.2496266248       -1.0506682402        0.6535222912
 H         -4.7345577071       -0.4226162460       -1.3158054125
 H         -4.5212843334        0.7937342796       -0.2034256108
 H         -4.5176630848       -0.7945647132        0.2911242749
 H         -2.4638739208        0.4387000046       -1.5037562699
 H         -2.4592826210       -1.2284250459       -0.9846479830
 H         -2.2296248596       -0.4775967892        1.4097966672
 H         -2.2338087882        1.1817311426        0.8929380645
 H         -0.3010912668        2.1300600418       -0.3267636142
 H          2.1447323610        2.0183829133       -0.6792468770
 H          2.1717464476       -2.0075614191        0.6725686982
 H         -0.2743342858       -1.9138341350        1.0305808320
  21
  -29.941576359999999        4.5930285759618796E-003 !mtd2
 N         -4.2432125521        0.0535807895        0.1889857443
 C         -2.7832591266        0.1622448324        0.4866265639
 C         -1.9028516714       -0.2403571630       -0.6937339706
 C         -0.4330871947       -0.1384400624       -0.4038225586
 C          0.2542102472        1.0544405416       -0.6204567243
 C          1.6000673888        1.1564974904       -0.3394287312
 C          2.2940148292        0.0637290094        0.1728846309
 F          3.5823768639        0.1611269038        0.4501578756
 C          1.6146474352       -1.1303722289        0.3964753836
 C          0.2683440442       -1.2264732676        0.1136993887
 H         -4.8195107164        0.3318467730        0.9972651907
 H         -4.5027414113       -0.9124460314       -0.0579664755
 H         -4.5091941190        0.6586307859       -0.6042007559
 H         -2.5431501390       -0.4607597179        1.3561829092
 H         -2.5501432856        1.1903502889        0.7879838687
 H         -2.1443907887        0.3804190115       -1.5623946891
 H         -2.1418026092       -1.2637863246       -0.9990378782
 H         -0.2742667098        1.9047965874       -1.0186454317
 H          2.1406191856        2.0736880562       -0.5101258962
 H          2.1662159950       -1.9689254842        0.7904141971
 H         -0.2492450123       -2.1556486469        0.2882216721
  21
  -29.941576250000001        4.5924939719783377E-003 !mtd5
 N         -4.2431314341        0.0504524080        0.1902437212
 C         -2.7831285675        0.1426099408        0.4930861577
 C         -1.9029045086       -0.2266683086       -0.6982565192
 C         -0.4331264395       -0.1300428289       -0.4066653696
 C          0.2571943569        1.0625724503       -0.6152044052
 C          1.6030436383        1.1597586602       -0.3324696618
 C          2.2939339424        0.0621624598        0.1736140441
 F          3.5824695256        0.1545639655        0.4517444915
 C          1.6115360687       -1.1316706606        0.3893018661
 C          0.2652953713       -1.2229222225        0.1045859876
 H         -4.5051159349        0.6831281757       -0.5793805542
 H         -4.8193832383        0.3020923917        1.0074275486
 H         -4.5069469007       -0.9070123209       -0.0919383346
 H         -2.5471721130       -0.5084575610        1.3429848322
 H         -2.5456431631        1.1596656255        0.8268335986
 H         -2.1462257443        0.4170935349       -1.5494956618
 H         -2.1402350170       -1.2418331127       -1.0312338547
 H         -0.2689473508        1.9167344155       -1.0083227394
 H          2.1458659264        2.0767484382       -0.4969221052
 H          2.1608133467       -1.9739667526        0.7784183217
 H         -0.2546083853       -2.1520006187        0.2726058448
  21
  -29.941575090000001        4.5868601165016199E-003 !mtd3
 N         -4.2417783906        0.0482224748        0.1948471783
 C         -2.7811878319        0.1554003831        0.4896477086
 C         -1.9031533414       -0.2322746788       -0.6974737682
 C         -0.4330360429       -0.1339440714       -0.4083345310
 C          0.2556747961        1.0593561592       -0.6182013240
 C          1.6012481211        1.1587200789       -0.3349207712
 C          2.2933410048        0.0627562269        0.1730772830
 F          3.5808455591        0.1581762410        0.4548058105
 C          1.6127056848       -1.1320288396        0.3891465654
 C          0.2667353532       -1.2254365786        0.1040721509
 H         -4.5004876651       -0.9148959691       -0.0634444884
 H         -4.5102858958        0.6615480692       -0.5882557101
 H         -4.8175081365        0.3159831955        1.0100096000
 H         -2.5379504218       -0.4773594488        1.3512401396
 H         -2.5485702902        1.1802151564        0.8024214990
 H         -2.1462335189        0.3993644919       -1.5578323665
 H         -2.1425154868       -1.2518318291       -1.0151650906
 H         -0.2716118167        1.9122366634       -1.0125482317
 H          2.1428701937        2.0763456911       -0.4999191731
 H          2.1628640910       -1.9729242271        0.7800513443
 H         -0.2521281677       -2.1548504857        0.2735738485
  21
  -29.941565359999998        4.5398750229992445E-003 !mtd2
 N         -4.2198089178       -0.1640789730       -0.4596500156
 C         -2.7415333551       -0.2235078473       -0.6672269084
 C         -1.9489064126        0.1814972780        0.5729738849
 C         -0.4614878984        0.1217454306        0.3764292555
 C          0.2383388737        1.2266515888       -0.1049961149
 C          1.6016307273        1.1694648664       -0.3022415466
 C          2.3013434005       -0.0020713796       -0.0263841494
 F          3.6071112121       -0.0613892853       -0.2203821469
 C          1.6097688137       -1.1119678394        0.4503360994
 C          0.2460944170       -1.0489229019        0.6456058309
 H         -4.5233333742        0.7880273282       -0.2094596118
 H         -4.5154121816       -0.7930536397        0.3009824893
 H         -4.7373237491       -0.4413027505       -1.3099173261
 H         -2.4671492948        0.4232686215       -1.5088212134
 H         -2.4586525151       -1.2381241439       -0.9717227408
 H         -2.2290438093       -0.4596948250        1.4147869083
 H         -2.2334932281        1.1932511486        0.8781510032
 H         -0.2945161821        2.1383162999       -0.3192035839
 H          2.1515875769        2.0217619140       -0.6679092173
 H          2.1657230575       -2.0111185920        0.6625245798
 H         -0.2809724794       -1.9126390111        1.0169686906
  21
  -29.938781219999999        2.3852930543333308E-004 !mtd1
 N         -3.5065896293       -1.1667081764       -0.4253543146
 C         -2.9469541510       -0.1772829605        0.5453801632
 C         -2.0001243459        0.8460328478       -0.1050131783
 C         -0.5355995479        0.5060748029       -0.0356857025
 C          0.4087246956        1.5261149093        0.0832676068
 C          1.7582846978        1.2466530146        0.1221985663
 C          2.2040455508       -0.0689697166        0.0354539134
 F          3.4966022371       -0.3412760585        0.0733088266
 C          1.2721404807       -1.0942207349       -0.0938239118
 C         -0.0755849714       -0.8059468683       -0.1324984595
 H         -4.0907844259       -0.6972972101       -1.1324022712
 H         -4.1020810153       -1.8652477870        0.0446236423
 H         -2.7698322149       -1.6795667007       -0.9335809736
 H         -2.4294835839       -0.6998833602        1.3585675956
 H         -3.7906316357        0.3366571698        1.0258931800
 H         -2.1441646454        1.8268174358        0.3629196486
 H         -2.2813324832        0.9842821326       -1.1536569814
 H          0.0769101244        2.5498425224        0.1428042670
 H          2.4911924770        2.0320359256        0.2166657440
 H          1.6319358287       -2.1081301513       -0.1644368498
 H         -0.7822454833       -1.6099555133       -0.2346062214
  21
  -29.938735820000002        2.2734078129046318E-004 !mtd1
 N         -3.5017233723        0.5172003651       -1.1618959037
 C         -2.9373247955        0.5675492327        0.2213764438
 C         -2.0108502877       -0.6174665887        0.5450571613
 C         -0.5414931608       -0.3592228317        0.3474062257
 C         -0.0645480300        0.4258664383       -0.7000807082
 C          1.2866624053        0.6286983391       -0.8817986182
 C          2.2057752813        0.0406388251       -0.0177814101
 F          3.5017646652        0.2363576517       -0.1864494435
 C          1.7433444615       -0.7553673184        1.0257955458
 C          0.3896978410       -0.9527803594        1.2007178813
 H         -4.1010754630       -0.3118494840       -1.2841228725
 H         -2.7687780636        0.4693446701       -1.8831081776
 H         -4.0842471574        1.3459354498       -1.3660720458
 H         -3.7783265196        0.5973571447        0.9272969581
 H         -2.4019064230        1.5122437611        0.3743655225
 H         -2.3024455302       -1.4815270255       -0.0605613760
 H         -2.1651686508       -0.9299770425        1.5841527656
 H         -0.7609031457        0.8859245827       -1.3775691895
 H          1.6595818868        1.2387851796       -1.6887650398
 H          2.4661985510       -1.2101887723        1.6842354395
 H          0.0445062351       -1.5787267858        2.0078090796
  21
  -29.938718300000001        2.2316481011237470E-004 !mtd2
 N         -3.5227247056       -1.1723213274       -0.3858363933
 C         -2.9420450467       -0.1618795232        0.5501956437
 C         -1.9983176245        0.8378177223       -0.1411283033
 C         -0.5335637177        0.5031962962       -0.0562042926
 C          0.4073180098        1.5241019703        0.0809484556
 C          1.7568989671        1.2465440602        0.1320919427
 C          2.2059254922       -0.0676566948        0.0406060922
 F          3.4983815019       -0.3383278964        0.0921788828
 C          1.2773943477       -1.0935230751       -0.1066190722
 C         -0.0703438984       -0.8072499322       -0.1576230411
 H         -2.7981688373       -1.7056775170       -0.8857407895
 H         -4.1105105801       -0.7172612651       -1.0995022710
 H         -4.1205845891       -1.8527661711        0.1115702047
 H         -2.4151574116       -0.6674871860        1.3681293365
 H         -3.7746748425        0.3697566383        1.0307260065
 H         -2.1457118771        1.8366432888        0.2857959994
 H         -2.2788902057        0.9324837891       -1.1947750715
 H          0.0732027122        2.5468230943        0.1443807296
 H          2.4874169322        2.0324483130        0.2395321093
 H          1.6397143464       -2.1063073356       -0.1803649183
 H         -0.7749482545       -1.6111726650       -0.2740927570
