  21
        -29.94430003
 N         -2.9721017181       -0.8815585552       -1.0130430240
 C         -2.9693031324        0.4201994296       -0.2838488843
 C         -2.0337417326        0.4267899746        0.9257055452
 C         -0.5875737774        0.2527402474        0.5646100231
 C          0.1388039801        1.3109743473        0.0220328278
 C          1.4660215757        1.1578116878       -0.3181829901
 C          2.1021236731       -0.0653756235       -0.1252926565
 F          3.3697701588       -0.2197969238       -0.4650920708
 C          1.3854059779       -1.1271415808        0.4189847582
 C          0.0578453078       -0.9681606232        0.7566645082
 H         -3.6063404250       -0.8609413729       -1.8258014563
 H         -3.2822775517       -1.6502999654       -0.4008993704
 H         -2.0295367851       -1.1176546062       -1.3617322636
 H         -3.9954415318        0.6536398142        0.0284387147
 H         -2.6815914288        1.2185004390       -0.9781443694
 H         -2.3303153148       -0.3664514290        1.6193010709
 H         -2.1458862926        1.3597019131        1.4895930346
 H         -0.3425061159        2.2642806460       -0.1213871646
 H          2.0370208308        1.9739077863       -0.7312276971
 H          1.8951887454       -2.0644935582        0.5740514057
 H         -0.4853169241       -1.7931884109        1.1876671499
  21
        -29.94157718
 N         -4.2195415529       -0.1660810561       -0.4595236230
 C         -2.7412299759       -0.2243016509       -0.6669824446
 C         -1.9489570611        0.1829698665        0.5727314952
 C         -0.4615151480        0.1227821019        0.3764852057
 C          0.2389198602        1.2277401405       -0.1039405478
 C          1.6021749338        1.1700010957       -0.3012899566
 C          2.3011899985       -0.0022160407       -0.0265532290
 F          3.6069574967       -0.0620804963       -0.2204544868
 C          1.6090410245       -1.1121565692        0.4492217790
 C          0.2454213100       -1.0484984272        0.6446481208
 H         -4.5144651358       -0.7945906842        0.3015505842
 H         -4.7355368419       -0.4439303492       -1.3078918791
 H         -4.5247426468        0.7880702658       -0.2096846571
 H         -2.4674977550        0.4216893601       -1.5093961120
 H         -2.4573551186       -1.2390530080       -0.9701138908
 H         -2.2291601869       -0.4568684971        1.4155460479
 H         -2.2336761385        1.1952718955        0.8759383134
 H         -0.2934322476        2.1398991247       -0.3173052436
 H          2.1526022235        2.0222824472       -0.6662846239
 H          2.1644152089       -2.0119020986        0.6603998037
 H         -0.2821290737       -1.9122149135        1.0153252505
  21
        -29.93878122
 N         -3.5065896293       -1.1667081764       -0.4253543146
 C         -2.9469541510       -0.1772829605        0.5453801632
 C         -2.0001243459        0.8460328478       -0.1050131783
 C         -0.5355995479        0.5060748029       -0.0356857025
 C          0.4087246956        1.5261149093        0.0832676068
 C          1.7582846978        1.2466530146        0.1221985663
 C          2.2040455508       -0.0689697166        0.0354539134
 F          3.4966022371       -0.3412760585        0.0733088266
 C          1.2721404807       -1.0942207349       -0.0938239118
 C         -0.0755849714       -0.8059468683       -0.1324984595
 H         -4.0907844259       -0.6972972101       -1.1324022712
 H         -4.1020810153       -1.8652477870        0.0446236423
 H         -2.7698322149       -1.6795667007       -0.9335809736
 H         -2.4294835839       -0.6998833602        1.3585675956
 H         -3.7906316357        0.3366571698        1.0258931800
 H         -2.1441646454        1.8268174358        0.3629196486
 H         -2.2813324832        0.9842821326       -1.1536569814
 H          0.0769101244        2.5498425224        0.1428042670
 H          2.4911924770        2.0320359256        0.2166657440
 H          1.6319358287       -2.1081301513       -0.1644368498
 H         -0.7822454833       -1.6099555133       -0.2346062214
