  15
  -19.387809499999999       0.17455987885875610      !mtd4
 N          2.3456168392       -0.0004846669       -0.0020747771
 C          0.9034986333       -0.0061898139        0.0034487965
 C          0.1858593855       -1.2052985691        0.0010145030
 C         -1.2057882324       -1.1992212426       -0.0004866653
 C         -1.8973770567        0.0064286743       -0.0009066068
 C         -1.1948695802        1.2056268541       -0.0005357628
 C          0.1968103384        1.1981781927        0.0010534074
 H          2.7548212508        0.4229992272       -0.8465697118
 H          2.7720350425       -0.9358347553        0.0507567640
 H          2.7610768527        0.5160255250        0.7857966310
 H          0.7205143821       -2.1407967538        0.0004545068
 H         -1.7492897373       -2.1323441595       -0.0015834864
 H         -2.9774767736        0.0113660535       -0.0019933521
 H         -1.7295447167        2.1438090598       -0.0016227457
 H          0.7430093453        2.1271824633        0.0008406189
  15
  -19.387804750000001       0.17368466806674390      !mtd6
 N          2.3455789523       -0.0132142925        0.0032731508
 C          0.9035478192        0.0009939973       -0.0034876244
 C          0.1897275754       -1.1993472964       -0.0014231460
 C         -1.2018667043       -1.1986281311        0.0001915366
 C         -1.8974018901        0.0047187869        0.0008287634
 C         -1.1988030774        1.2062278886        0.0002141534
 C          0.1929558378        1.2041216442       -0.0014643912
 H          2.7514923037       -0.4435805251        0.8458853507
 H          2.7776833857        0.9198131145       -0.0441337147
 H          2.7587990248       -0.5280757253       -0.7868592825
 H          0.7305323279       -2.1314499892       -0.0015650369
 H         -1.7419836802       -2.1336912964        0.0008530166
 H         -2.9775145860        0.0060559833        0.0017843766
 H         -1.7367896891        2.1425387268        0.0009228747
 H          0.7331423650        2.1364887287       -0.0011131959
  15
  -19.387802900000001       0.17334498506054999      !mtd4
 N          2.3455999214       -0.0001996022        0.0024323873
 C          0.9035405319       -0.0063614442       -0.0025692319
 C          0.1857881784       -1.2054434955       -0.0010276613
 C         -1.2058923554       -1.1992347008        0.0000851613
 C         -1.8974304043        0.0064703162        0.0005227876
 C         -1.1947658606        1.2056023213        0.0000110362
 C          0.1968833360        1.1980825585       -0.0010165371
 H          2.7551172905        0.4425452717        0.8368695957
 H          2.7607000960        0.4981959895       -0.7970867897
 H          2.7722814479       -0.9365346867       -0.0286663177
 H          0.7203931353       -2.1409536309        0.0007205877
 H         -1.7494710808       -2.1323150243        0.0011367037
 H         -2.9775411319        0.0114726535        0.0019352587
 H         -1.7292332168        2.1438914208        0.0002950151
 H          0.7432541162        2.1270116595       -0.0014054998
  15
  -19.387725860000000       0.15977401515412260      !mtd2
 N          2.3449642256       -0.0056916107       -0.0194310774
 C          0.9037385005       -0.0032710285        0.0246178268
 C          0.1875500657       -1.2027597005        0.0099769281
 C         -1.2040240155       -1.1989670217       -0.0025679738
 C         -1.8972277352        0.0057257364       -0.0072785644
 C         -1.1963241052        1.2058644006       -0.0025740832
 C          0.1953314480        1.2005007252        0.0101936889
 H          2.7295410274        0.0425829484       -0.9731951030
 H          2.7757256333       -0.8422065492        0.3981477168
 H          2.7797680790        0.7805438268        0.4832357657
 H          0.7247548742       -2.1368302618        0.0065440359
 H         -1.7460302203       -2.1328749422       -0.0101581453
 H         -2.9773014497        0.0091920626       -0.0169284254
 H         -1.7322489396        2.1433039505       -0.0097691747
 H          0.7391536277        2.1308571972        0.0064326451
  15
  -19.387723940000001       0.15944972638593327      !mtd4
 N          2.3449459533       -0.0080855236       -0.0187854225
 C          0.9037536826       -0.0019029528        0.0240828739
 C          0.1882914876       -1.2016459613        0.0096125445
 C         -1.2032868718       -1.1988352781       -0.0026139170
 C         -1.8972561720        0.0054131912       -0.0068707443
 C         -1.1970692540        1.2059588975       -0.0024763156
 C          0.1946237206        1.2016188850        0.0096880732
 H          2.7749217664       -0.7901155069        0.4943817708
 H          2.7802415733        0.8313318154        0.3881448410
 H          2.7301103337       -0.0709285308       -0.9715355073
 H          0.7266380047       -2.1351150641        0.0057086026
 H         -1.7447405979       -2.1331009221       -0.0101929411
 H         -2.9773290411        0.0082102948       -0.0158219150
 H         -1.7336294296        2.1430517670       -0.0096222017
 H          0.7372557668        2.1326304782        0.0055391486
  15
  -19.387722380000000       0.15918672647389409      !mtd1
 N          2.3449062806       -0.0080663684        0.0199452870
 C          0.9037436843       -0.0019081370       -0.0242549393
 C          0.1882832606       -1.2016577863       -0.0099799341
 C         -1.2032873721       -1.1988496704        0.0023935412
 C         -1.8972352564        0.0054081697        0.0066659449
 C         -1.1970409822        1.2059527912        0.0021282157
 C          0.1946463132        1.2016253449       -0.0099459480
 H          2.7805518911        0.8310427379       -0.3872598946
 H          2.7753829372       -0.7904181136       -0.4923062173
 H          2.7291889235       -0.0701284979        0.9731046669
 H          0.7266297730       -2.1351271279       -0.0060806897
 H         -1.7447170664       -2.1331312238        0.0099537075
 H         -2.9773035121        0.0082255452        0.0157323441
 H         -1.7336205402        2.1430346275        0.0091047517
 H          0.7372750570        2.1326300203       -0.0062523308
