  15
        -19.38780950
 N          2.3456168392       -0.0004846669       -0.0020747771
 C          0.9034986333       -0.0061898139        0.0034487965
 C          0.1858593855       -1.2052985691        0.0010145030
 C         -1.2057882324       -1.1992212426       -0.0004866653
 C         -1.8973770567        0.0064286743       -0.0009066068
 C         -1.1948695802        1.2056268541       -0.0005357628
 C          0.1968103384        1.1981781927        0.0010534074
 H          2.7548212508        0.4229992272       -0.8465697118
 H          2.7720350425       -0.9358347553        0.0507567640
 H          2.7610768527        0.5160255250        0.7857966310
 H          0.7205143821       -2.1407967538        0.0004545068
 H         -1.7492897373       -2.1323441595       -0.0015834864
 H         -2.9774767736        0.0113660535       -0.0019933521
 H         -1.7295447167        2.1438090598       -0.0016227457
 H          0.7430093453        2.1271824633        0.0008406189
