15
 energy: -19.390739819586 gnorm: 0.000266339202 xtb: 6.5.1 (fef0646)
N            2.36407472676703       -0.08389285665459       -0.16477926520318
C            0.87834411506012       -0.05864520438925       -0.08392849376184
C            0.18799335340292       -1.25720012632128       -0.03275903359837
C           -1.19567533276236       -1.22819165564771        0.03541891305662
C           -1.86579885433734       -0.01497015904593        0.05124497612431
C           -1.15948114983343        1.17559035089292       -0.00036155004950
C            0.22541668674947        1.15997640090448       -0.06863045503212
H            2.75274874543977       -0.73466769809867        0.53156109925703
H            2.73681751198471        0.85962676508814        0.00887625300554
H            2.67252030883267       -0.39277132712147       -1.09781419686521
H            0.71354636502821       -2.19980791809156       -0.04494485079058
H           -1.74569593892226       -2.15442897947427        0.07725030810090
H           -2.94252146115295        0.00208969304736        0.10550398818943
H           -1.68046647077552        2.11927597750678        0.01355033421434
H            0.77761739451897        2.08689673740507       -0.10828802664737
