18
 energy: -21.343729619630 gnorm: 0.000933494885 xtb: 6.5.1 (fef0646)
N            0.94970242049819       -0.08544647335818       -0.04571844698070
C            2.43284630750343       -0.08859857863556       -0.04858168847161
C            2.96212486788971        0.01841841295075       -1.47337844389197
C            4.49017911684903        0.00307656216154       -1.50137550584900
C            5.00968499330200        0.01699442775876       -2.94130223435595
O            4.60965311041851       -1.12313055273236       -3.67622822398287
H            0.58485888533324       -0.13637890289484        0.91220627245611
H            0.59404576373972       -0.88835533998815       -0.57824742110904
H            0.59747786838741        0.77204768810308       -0.48784666075621
H            2.78894850147087       -1.01057480351714        0.41085622251843
H            2.79498323854164        0.75293266643878        0.54195380888128
H            2.62128255246714        0.94473976938731       -1.93764646175372
H            2.60679767662956       -0.81513918366676       -2.08129937068638
H            4.86520354286250       -0.89073643037481       -0.99876408379761
H            4.89300928534537        0.87469711601714       -0.98529163839316
H            6.10259246539974        0.11269806942131       -2.94710392670097
H            4.59308370122327        0.86765748932947       -3.48675400685062
H            5.05888570213867       -1.90212193640035       -3.32303819027603
