  15
        -19.38751697
 N          2.3420999083       -0.0004488969        0.0005492072
 C          0.9056006631       -0.0063842012       -0.0010693345
 C          0.1869219918       -1.2060566830       -0.0002066027
 C         -1.2055126257       -1.1998589688        0.0001342509
 C         -1.8974272216        0.0064821819        0.0002930878
 C         -1.1944597275        1.2063631911        0.0001481785
 C          0.1978614107        1.1988584135       -0.0003031056
 H          2.7687697395       -0.9368045198       -0.0120338099
 H          2.7555181511        0.4815935665       -0.8096319248
 H          2.7538239213        0.4591594815        0.8245216179
 H          0.7217592684       -2.1422968002        0.0002932253
 H         -1.7497864866       -2.1338380586       -0.0000081747
 H         -2.9786752982        0.0115195814        0.0003841293
 H         -1.7296468172        2.1455620781        0.0001968527
 H          0.7444489487        2.1284461918        0.0006046697
  15
        -19.38742432
 N          2.3413446683       -0.0057670845        0.0198732630
 C          0.9058304484       -0.0033806738       -0.0248848687
 C          0.1886757414       -1.2034667008       -0.0100022751
 C         -1.2036983251       -1.1995781688        0.0025227135
 C         -1.8972778551        0.0057663438        0.0071209008
 C         -1.1958997406        1.2065724933        0.0025235880
 C          0.1964121166        1.2012840216       -0.0103184986
 H          2.7256753678        0.0508889897        0.9729872960
 H          2.7724935852       -0.8458042263       -0.3898288967
 H          2.7769131353        0.7754949432       -0.4894606643
 H          0.7259675713       -2.1383685629       -0.0062177167
 H         -1.7463681910       -2.1344612774        0.0098383835
 H         -2.9784891433        0.0092716452        0.0165406413
 H         -1.7324386198        2.1449867844        0.0102408302
 H          0.7403464446        2.1323670080       -0.0065625477
