28
 energy: -39.379399482407 gnorm: 0.000340726859 xtb: 6.5.1 (fef0646)
N            4.03679910737792        0.03205529268617        1.28515484942059
C            2.81054746491094        0.56243881743696        0.62654418259434
C            3.27803886231382        1.72812866224105       -0.25113862469841
O            4.43738070191684        1.23718829920125       -0.88896833057369
C            5.15217965025278        2.07374870240765       -1.75042267563639
C            4.79890482413683        3.36564153612660       -2.02146046677724
C            5.59148424756687        4.13790316573538       -2.88769886836521
C            6.71209994051519        3.61348643550042       -3.46126959063285
C            7.09492933544407        2.27992280741259       -3.20252267445157
C            8.24295204961757        1.70875850733785       -3.78942694766177
C            8.59402055957995        0.41316250876640       -3.53122599935094
C            7.80882925356989       -0.37328531853503       -2.67623039768803
C            6.68974879509639        0.14924303271337       -2.08964164887017
C            6.30503135515130        1.48399287642830       -2.33249788653579
H            3.95412469505327       -0.94808367554379        1.56986335008858
H            4.31314790077403        0.59991217669725        2.09384401986778
H            4.75500343853851        0.15344480622048        0.52454000660663
H            2.06531399425422        0.87545511823687        1.35553364590446
H            2.39472279486752       -0.22279214858486       -0.00619432546172
H            3.51470061178021        2.61006288072633        0.35968402837914
H            2.50159830270332        1.99600668764140       -0.97450087355122
H            3.91829156998326        3.81536418758606       -1.59106663001932
H            5.29433598175962        5.15496766150401       -3.08839590940514
H            7.32010261172301        4.20888487593813       -4.12431477285260
H            8.83889145950244        2.31735108835887       -4.45242131118788
H            9.47271461387792       -0.01603561043266       -3.98685355175964
H            8.09213303127317       -1.39765932022869       -2.48747272912159
H            6.07737284645882       -0.46963405357829       -1.44863986826061
