  26
        -32.74852252
 N         -1.4608822428       -0.4342931333       -0.7974659991
 C         -1.1121719832       -1.1256558531        0.4335948392
 C          0.2753728749       -1.7651464178        0.3932335071
 C          1.3704370065       -0.7623945044        0.1761516151
 C          1.8071021430       -0.5062351638       -1.0537663588
 C          2.8597290765        0.5052422131       -1.3876335570
 C          3.6407423960        0.9904058985       -0.1552950010
 C          2.6997754549        1.2311610158        1.0315920368
 C          1.9159346157       -0.0438774438        1.3819217087
 Cl        -4.4682727700        0.7299813451        0.0234050538
 H         -0.7662638249        0.2792421199       -0.9906393015
 H         -3.2593731003        0.2626572307       -0.3105620301
 H         -1.4062155559       -1.0843224738       -1.5742070227
 H         -1.8809229577       -1.8795702248        0.6448873487
 H         -1.1715837967       -0.4114781452        1.2644265170
 H          0.3105519655       -2.5178155042       -0.4021125945
 H          0.4708281451       -2.3132152346        1.3222643036
 H          1.3732378543       -1.0610637663       -1.8702418453
 H          2.3829140723        1.3655978771       -1.8748715648
 H          3.5487326400        0.0889961956       -2.1349113571
 H          4.2123725379        1.8993113405       -0.3879196751
 H          4.3884425146        0.2374628339        0.1227613651
 H          1.9954150103        2.0330511258        0.7783990557
 H          3.2596331711        1.5968838204        1.9032625760
 H          1.0885097341        0.1917937592        2.0627950607
 H          2.5632847179       -0.7341332228        1.9362855651
