26
 energy: -32.753674830172 gnorm: 0.000346544318 xtb: 6.5.1 (fef0646)
N            1.10949846055880       -0.10832297925240       -0.19483478371254
C            2.57112972357189       -0.09752545809396       -0.14717647596525
C            3.06982498702292        1.30591802628630        0.20843001492499
C            4.56968999616752        1.39162274826040        0.12200246653150
C            5.17300862533917        1.97359440726337       -0.90508603447173
C            6.65765607258868        2.07215378713401       -1.07192883058564
C            7.39677368038658        1.14025817721572       -0.11623005996433
C            6.78843629559676        1.25085975706912        1.27643269547598
C            5.34533333190570        0.75603416543275        1.24425535759491
Cl           0.13346484416316        1.84518322209158       -2.14974165115665
H            0.75581979835382       -1.01782914630069       -0.46961977563084
H            0.60412725237117        0.93440218028847       -1.23435233259387
H            0.71833108556748        0.13635535497730        0.70888445703134
H            2.93643820587041       -0.36742949340712       -1.14048439195923
H            2.96277499623255       -0.82756913766046        0.57459088653945
H            2.73937495216978        1.55658407758390        1.21997722744044
H            2.61567627548811        2.01282430924710       -0.48557579553640
H            4.58202689460215        2.43296941279838       -1.68591459226584
H            6.96238653358085        3.10856252824041       -0.88978325622273
H            6.92238998318776        1.84049629575196       -2.10689745871831
H            8.45818908808846        1.39384668441631       -0.09164203178905
H            7.30433196979511        0.10997222364119       -0.46661642096977
H            6.80739625951776        2.29495360148438        1.59520550197638
H            7.36700683096473        0.66665113261156        1.99481042175691
H            4.85468217723214        0.97179942749322        2.19711917432520
H            5.33857167966284       -0.33158530457489        1.11482568794900
