39
 energy: -62.263911846831 gnorm: 0.000512327146 xtb: 6.5.1 (fef0646)
N            3.20340020329134       -1.46321776508334        1.69099353536334
C            2.63864611015353       -0.92276451746237        0.43540459086978
C            3.59063192768084        0.09940349517046       -0.19095901001646
C            4.81707996884125       -0.53021658472637       -0.76097272598814
C            5.17841265902372       -0.64892170624602       -2.06877554903296
C            6.40577372620143       -1.31205558578896       -2.25710565935810
C            7.00041113331065       -1.71121492156153       -1.08806527190980
C            8.22703454842974       -2.40607535014776       -0.89334020164525
C            8.82673359275503       -2.76390780099856        0.29173498948675
C           10.03892557361558       -3.43697864203074        0.11613399738071
C           10.38405363930502       -3.60762408713377       -1.20575033842143
C           11.53485307663485       -4.24702977857146       -1.74584233078796
C           12.58266677356015       -4.83493679845529       -1.07386202869834
C           13.55041337110409       -5.37802513132773       -1.92408482917875
C           13.26356635609415       -5.21823447321390       -3.25889705219110
C           14.01949228976210       -5.64644321873621       -4.38742218892448
C           13.72668793008050       -5.49497087317522       -5.71931951561901
C           14.70660102181926       -6.04682420224362       -6.56512027053953
C           15.73470185593844       -6.61372332970638       -5.88085564087191
S           15.53340264727770       -6.48640124193448       -4.17823482806668
S           11.75903614881694       -4.37272073587409       -3.47151531841338
S            9.18479861464385       -2.91763116003975       -2.26036482210810
S            6.03277208075212       -1.24567346693983        0.26854735224118
H            2.58412578356957       -2.17224873442243        2.09748347945549
H            3.34365894015521       -0.70915699294091        2.37268552337325
H            4.12415225980174       -1.88660219933606        1.50284183445156
H            1.68720601551941       -0.43763458307365        0.64870678681191
H            2.46933504825399       -1.73981744428136       -0.26502374956385
H            3.87513192572798        0.84278386788928        0.55461766783512
H            3.07168808857403        0.61515887812406       -0.99783255360550
H            4.58977367616789       -0.27142794634379       -2.88509703387262
H            6.85601975071112       -1.49771787766600       -3.21655235541637
H            8.40536827914091       -2.54362892892416        1.25658163232947
H           10.64853949320851       -3.79028664054269        0.92678620998950
H           12.64872318212178       -4.87108734543010       -0.00243319052738
H           14.44022229648110       -5.87798403141004       -1.58435041039408
H           12.83580389324112       -5.00308119625136       -6.06776920246616
H           14.64907006401713       -6.02336386364929       -7.63792765708212
H           16.60719605421412       -7.10208708551508       -6.26529386488845
