18
 energy: -22.153735250240 gnorm: 0.000350491226 xtb: 6.5.1 (fef0646)
N            1.10104399397874       -0.26846381015130        0.38638951656013
C            2.55778505872265       -0.32730177839796        0.24857809325184
C            2.98809780847444       -1.31575332790989       -0.83863017039531
C            2.50588714941677       -0.87566301961326       -2.21686967754992
C            4.50886288172618       -1.45709198038659       -0.82754718402454
Cl          -0.37247428430063        1.32655540505461       -1.57828349137837
H            0.84456867019530        0.23551858167342        1.22854719813205
H            0.71025536605673       -1.20404406585523        0.43956129260830
H            0.36580909119040        0.55744665056003       -0.70680720641487
H            3.03562304940177       -0.61754835173558        1.19534279304095
H            2.90161193132296        0.67700374211171       -0.01067791907112
H            2.54665146342523       -2.29278786142060       -0.60558622359121
H            2.91566795738067        0.10001869930490       -2.46490674508589
H            1.42341728526527       -0.80771067230821       -2.24957727529413
H            2.83169061858970       -1.58763274980146       -2.97137935944242
H            4.97769424441846       -0.50176942300585       -1.05168864505777
H            4.82587290113761       -2.17795892490339       -1.57662256741138
H            4.86345481357853       -1.79497711321503        0.14400757111322
