36
 energy: -53.395061185000 gnorm: 0.000235807560 xtb: 6.5.1 (fef0646)
N            3.87053171479280        0.46578154291948       -1.59212177768826
C            2.82921012061755       -0.26466365152213       -0.83409940594266
C            3.33502212004920       -1.66532879178013       -0.50820885511553
O            4.50545643004735       -1.47796177057543        0.28462976800713
C            5.16081283302878       -2.56041844921147        0.78380189200177
C            6.25250045424451       -2.28419339241246        1.63245895205751
C            6.60768764860440       -0.95439970449519        2.00101196260490
C            7.66728907863960       -0.70804605006985        2.80618376573134
C            7.01510505211730       -3.36048310111321        2.14100749452736
C            6.67182660285657       -4.69662875547876        1.81636017082886
C            5.56904690505435       -4.92281031234426        0.99556031308113
C            4.82642813631703       -3.87471095723261        0.48436410768793
C            7.46454659339854       -5.75873097521200        2.34117647749722
C            8.53170742662515       -5.51059076241602        3.13475143490145
C            8.90176078345269       -4.17664650653435        3.48109177629117
C            9.99866917837484       -3.89855167987459        4.29747152542585
C           10.32884350898890       -2.59347472159484        4.61760158229014
C            9.57666792814243       -1.53828135235018        4.13646683748245
C            8.47140577771912       -1.76871889353237        3.31459223899522
C            8.12779433296781       -3.10136451474499        2.97804492326899
H            3.63158920613828        1.45898960822814       -1.68968110031853
H            3.99931532472800        0.05970219154256       -2.52680462375202
H            4.75784770658770        0.37905634405508       -1.07839807532484
H            1.90973147960770       -0.32889394809157       -1.41335235363413
H            2.63315831914921        0.26125340450375        0.10034206922033
H            3.58262985680784       -2.22094043185938       -1.41975330562017
H            2.57485990979860       -2.21960209451621        0.05027004733364
H            5.99776185662211       -0.14372250346614        1.63828876722700
H            7.92755737463402        0.30214952871471        3.08612904043857
H            5.29510258633622       -5.93837517941661        0.75075241717461
H            3.98512554673154       -4.10306431623287       -0.14936990234422
H            7.19107594693215       -6.77301741572695        2.08683871478582
H            9.12955483197498       -6.32094066106717        3.52741933541491
H           10.59178110149054       -4.71686275735462        4.68034798020960
H           11.18232846455530       -2.39905151106451        5.25097724378486
H            9.84127786186680       -0.52332745867370        4.39544856147078
