  22
        -30.66476696
 N         -1.1336138173        1.5411533181       -1.1099131226
 C         -0.0517664145        1.7512058096       -0.1020129412
 C         -0.6397746067        2.0381149348        1.2741366834
 C          0.8987303174        0.5774137186       -0.0643591467
 C          2.2720067852        0.7803453982       -0.1205463207
 C          3.1455702436       -0.2889918789       -0.0698822080
 C          2.6575595860       -1.5757139712        0.0404569073
 C          1.2952727935       -1.7906432129        0.1025634080
 C          0.4230299833       -0.7204457739        0.0527121044
 Cl        -3.0654459095       -1.1250345599        0.0484461313
 H         -1.7298668903        2.3777537348       -1.2085421993
 H         -1.7439784071        0.7567847661       -0.8219268250
 H         -0.7415912022        1.3103811090       -2.0380449482
 H          0.5282099444        2.6317691026       -0.4243849162
 H         -1.3065839240        2.9019181271        1.2513587470
 H          0.1434090695        2.2318338725        2.0096841911
 H         -1.2191270906        1.1843331236        1.6280725324
 H          2.6539724785        1.7850998861       -0.2015593329
 H          4.2099013101       -0.1179394594       -0.1151881963
 H          3.3391701570       -2.4111013740        0.0797512759
 H          0.9111188685       -2.7950384133        0.1908965169
 H         -0.6395432182       -0.8911415885        0.1058746729
