  22
  -27.513666480000001       0.13029068186359463      !md2
 N          0.7115147992        1.8794156362        0.0126671426
 C         -0.6053367509        1.1675570130        0.0098320059
 C         -0.7707566582        0.3142298551       -1.2617823563
 C         -2.1181613653       -0.4284646375       -1.2689898588
 C         -2.2763265198       -1.2977809477       -0.0090775730
 C         -2.1095543453       -0.4537493677        1.2668275790
 C         -0.7622099297        0.2890677619        1.2652817685
 Cl         3.0601868375       -0.7060834696       -0.0066236100
 H          0.8191179273        2.4775481986       -0.8171801581
 H          1.4768642675        1.1861246453        0.0050297540
 H          0.8230399837        2.4631906914        0.8521747758
 H         -1.4093914272        1.9210561448        0.0199611397
 H          0.0500193208       -0.4097512610       -1.3064127071
 H         -0.6573173355        0.9404126686       -2.1554592763
 H         -2.2230990128       -1.0360662016       -2.1783556909
 H         -2.9351669268        0.3021950553       -1.3111216279
 H         -1.5209335833       -2.0931260136       -0.0195691783
 H         -3.2455779934       -1.8155002635       -0.0109422000
 H         -2.2082534606       -1.0794442932        2.1645431459
 H         -2.9262265994        0.2758382146        1.3291261601
 H          0.0587420671       -0.4356768475        1.2897986833
 H         -0.6425114005        0.8973560965        2.1704343549
  22
  -27.513628980000000       0.12522168694477637      !mtd1
 N          0.7117951083        1.8824667931        0.0000749625
 C         -0.6045040185        1.1696188358        0.0046878312
 C         -0.7802302127        0.3233780217       -1.2702653227
 C         -2.1265632876       -0.4212336472       -1.2694450112
 C         -2.2711547880       -1.2987972314       -0.0136717800
 C         -2.0945172924       -0.4622753415        1.2658415311
 C         -0.7490526801        0.2839027425        1.2565920491
 Cl         3.0536182585       -0.7090413372        0.0103892751
 H          1.4756157465        1.1911766839       -0.0104991662
 H          0.8279031538        2.4681854386        0.8405811716
 H          0.8146777127        2.4799547947       -0.8308404166
 H         -1.4090254565        1.9223864774        0.0260889186
 H          0.0410971499       -0.3991559716       -1.3264036486
 H         -0.6757857082        0.9547518885       -2.1613902780
 H         -2.2395444247       -1.0230079218       -2.1817187821
 H         -2.9449118977        0.3085493737       -1.2987237541
 H         -1.5140170696       -2.0922396507       -0.0361296294
 H         -3.2391701841       -1.8188157728       -0.0098823745
 H         -2.1831445502       -1.0939584164        2.1604140325
 H         -2.9124042521        0.2647685436        1.3405343641
 H          0.0738321509       -0.4389350174        1.2704845180
 H         -0.6231837504        0.8876440541        2.1639443671
  22
  -27.513627050000000       0.12496620566005409      !mtd5
 N          0.7116212113        1.8749182162        0.0141865341
 C         -0.6061572418        1.1648566752        0.0105405624
 C         -0.7717978436        0.3110194515       -1.2606674198
 C         -2.1207506299       -0.4289075471       -1.2690314434
 C         -2.2828939339       -1.2965446243       -0.0084266803
 C         -2.1151717937       -0.4520072509        1.2670256078
 C         -0.7659402005        0.2873800806        1.2662776205
 Cl         3.0682445532       -0.7020849939       -0.0086896352
 H          0.8227698592        2.4595818040        0.8531587974
 H          0.8211180172        2.4732902816       -0.8182450712
 H          1.4746753468        1.1826353989        0.0080943919
 H         -1.4091093687        1.9195716357        0.0194306085
 H          0.0475473614       -0.4146666165       -1.3039185536
 H         -0.6560637278        0.9364752394       -2.1545578471
 H         -2.2252365651       -1.0375181357       -2.1777712682
 H         -2.9362339230        0.3033129626       -1.3135866885
 H         -1.5300328871       -2.0943073644       -0.0173390596
 H         -3.2537741279       -1.8112056514       -0.0109599025
 H         -2.2163379659       -1.0767851853        2.1651027719
 H         -2.9300469931        0.2796975160        1.3280262362
 H          0.0531618534       -0.4394330363        1.2916414224
 H         -0.6453413504        0.8956951600        2.1712905100
  22
  -27.512861010000002        5.5557791632530718E-002 !md3
 N          0.9347583350        0.7063079455       -1.1752629242
 C         -0.3731974603        0.4800536198       -0.4832923045
 C         -1.5563897559        0.6359005069       -1.4564063482
 C         -2.9009094451        0.4092832407       -0.7432525467
 C         -2.9385012126       -0.9690484338       -0.0594256626
 C         -1.7543008931       -1.1375605416        0.9091324290
 C         -0.4144455876       -0.9046238703        0.1894983766
 Cl         3.4728323604        0.2631502095        1.2008273145
 H          1.0640109879        0.0174328470       -1.9272029876
 H          1.7237573426        0.6038173989       -0.5149854125
 H          0.9825197018        1.6449622612       -1.5933968825
 H         -0.4833958284        1.2410113950        0.3063533000
 H         -1.4416950086       -0.0916123526       -2.2670672801
 H         -1.5228008067        1.6205013871       -1.9391784421
 H         -3.7378938955        0.5191954508       -1.4464662824
 H         -3.0489088325        1.1927091773        0.0100529801
 H         -2.8971079050       -1.7548023223       -0.8237102866
 H         -3.8937407870       -1.1196912137        0.4624146392
 H         -1.7749092388       -2.1289723386        1.3821987939
 H         -1.8535361208       -0.4199375767        1.7327247808
 H         -0.2694389936       -1.6719098680       -0.5785068506
 H          0.4322764013       -1.0161492181        0.8783437985
  22
  -27.512853289999999        5.5105774194252735E-002 !gc
 N          0.9382824657        0.6808402480        1.1859033844
 C         -0.3717544749        0.4699059522        0.4929861500
 C         -0.4165308547       -0.9014130615       -0.2064666203
 C         -1.7586559186       -1.1190774006       -0.9266596917
 C         -2.9399452426       -0.9681521865        0.0483123075
 C         -2.8989403627        0.3966578872        0.7585511284
 C         -1.5521801993        0.6082437170        1.4720878252
 Cl         3.4712768040        0.2861211765       -1.2037109216
 H          0.9887650199        1.6109177879        1.6225648467
 H          1.7254146107        0.5901492962        0.5216699448
 H          1.0685772615       -0.0229014151        1.9238076532
 H         -0.4829484793        1.2462617071       -0.2813786793
 H         -0.2702933357       -1.6836012803        0.5461117668
 H          0.4281018092       -1.0004796510       -0.8997576706
 H         -1.7815805565       -2.1011798453       -1.4186404638
 H         -1.8595150261       -0.3856706580       -1.7360218589
 H         -2.8973872462       -1.7686290880        0.7970943738
 H         -3.8967797189       -1.1075627496       -0.4737324582
 H         -3.7337835557        0.4936684876        1.4661922773
 H         -3.0483420430        1.1946447535        0.0209702032
 H         -1.4359561590       -0.1347456325        2.2683695151
 H         -1.5162626924        1.5833599752        1.9735475108
  22
  -27.512851670000000        5.5011388632357251E-002 !md2
 N          0.9349080838        0.7075285512       -1.1741661123
 C         -0.3732516205        0.4811356060       -0.4826185853
 C         -1.5559360403        0.6355914184       -1.4565781813
 C         -2.9008079529        0.4082170655       -0.7443457245
 C         -2.9378338360       -0.9698048893       -0.0598664708
 C         -1.7542305212       -1.1368821527        0.9096585940
 C         -0.4139894282       -0.9031899028        0.1909711096
 Cl         3.4721168078        0.2622372832        1.2000412969
 H          0.9829803898        1.6458691377       -1.5930754191
 H          1.0649787944        0.0164528037       -1.9272489047
 H          1.7217749799        0.6057052121       -0.5150318105
 H         -0.4843227924        1.2425648817        0.3064461198
 H         -1.4400363662       -0.0921922385       -2.2668259840
 H         -1.5228146219        1.6199757909       -1.9398095583
 H         -3.7373393876        0.5170524144       -1.4482569899
 H         -3.0499951365        1.1919085478        0.0084506015
 H         -2.8953084918       -1.7559306085       -0.8237066679
 H         -3.8933304218       -1.1208507785        0.4613916632
 H         -1.7743618095       -2.1281163190        1.3831202004
 H         -1.8547144962       -0.4189934710        1.7328646287
 H         -0.2676997911       -1.6707993796       -0.5764782139
 H          0.4322162249       -1.0136044601        0.8806189680
  22
  -27.512818350000000        5.3105535935622138E-002 !gc
 N          0.9400912533        0.6783805987        1.1923246303
 C         -0.3680499631        0.4672891929        0.4959055048
 C         -0.4131626315       -0.9067151633       -0.1982406728
 C         -1.7530349454       -1.1243242325       -0.9226189560
 C         -2.9376380435       -0.9668331817        0.0472873098
 C         -2.8961928139        0.4007091818        0.7522253211
 C         -1.5517055141        0.6119722848        1.4701475236
 Cl         3.4633493818        0.2888582309       -1.2091022238
 H          1.7268497573        0.5860760892        0.5317009822
 H          1.0679623918       -0.0255193308        1.9338484805
 H          0.9903001685        1.6093944110        1.6270176378
 H         -0.4750452477        1.2407791319       -0.2819238016
 H         -0.2714637132       -1.6862151428        0.5579913090
 H          0.4338623572       -1.0103660975       -0.8879311397
 H         -1.7762980741       -2.1083630495       -1.4107008149
 H         -1.8491848207       -0.3939778016       -1.7353137714
 H         -2.8996371265       -1.7643577536        0.7994567550
 H         -3.8928295577       -1.1062445790       -0.4777546702
 H         -3.7336250010        0.5026398186        1.4561001156
 H         -3.0406974642        1.1960341217        0.0107987678
 H         -1.4401380657       -0.1282189515        2.2696915936
 H         -1.5154968470        1.5889399348        1.9679706433
  22
  -27.512814469999999        5.2887942442246649E-002 !gc
 N          0.9403612425        0.6939935758       -1.1913607763
 C         -0.3634424827        0.4695314860       -0.4911589118
 C         -1.5541046467        0.6422116764       -1.4520773474
 C         -2.8932995975        0.4205405481       -0.7274323089
 C         -2.9356556905       -0.9631854731       -0.0547641215
 C         -1.7428860121       -1.1505722979        0.8998298625
 C         -0.4085283809       -0.9210882407        0.1689538362
 Cl         3.4547515245        0.2752521896        1.2134091736
 H          1.7305330120        0.5895941496       -0.5366894247
 H          0.9880182968        1.6354093205       -1.6092539187
 H          1.0636915088        0.0059028742       -1.9450492153
 H         -0.4621782472        1.2237067914        0.3064865718
 H         -1.4528125024       -0.0799760773       -2.2692567274
 H         -1.5173427173        1.6301998053       -1.9276302768
 H         -3.7363448254        0.5434632164       -1.4211652299
 H         -3.0271130160        1.1987109954        0.0339368995
 H         -2.9096709074       -1.7428281082       -0.8259451377
 H         -3.8865777548       -1.1095966857        0.4761012357
 H         -1.7664441969       -2.1466065378        1.3629459189
 H         -1.8279661395       -0.4407593958        1.7317274801
 H         -0.2773831515       -1.6821339194       -0.6077269398
 H          0.4442409030       -1.0456637629        0.8479971673
  22
  -27.512812019999998        5.2751003948477308E-002 !md3
 N          0.9394323484        0.6734419889        1.1880440189
 C         -0.3705767141        0.4652992550        0.4940725507
 C         -0.4182686731       -0.9059004559       -0.2054865392
 C         -1.7604330760       -1.1200603422       -0.9267789674
 C         -2.9421737250       -0.9657314861        0.0470970569
 C         -2.8981406722        0.3993218381        0.7566216200
 C         -1.5516793612        0.6068561609        1.4718774700
 Cl         3.4720691374        0.2919505808       -1.2041657193
 H          1.0677705087       -0.0295230862        1.9270911176
 H          0.9925872455        1.6062453824        1.6243552593
 H          1.7247884949        0.5805728575        0.5257544569
 H         -0.4791896759        1.2418278903       -0.2804910234
 H         -0.2742265012       -1.6886127356        0.5469550865
 H          0.4264137572       -1.0067742631       -0.8984647295
 H         -1.7856832388       -2.1021217452       -1.4187127300
 H         -1.8586044364       -0.3864360155       -1.7362762654
 H         -2.9019744739       -1.7657539196        0.7964998304
 H         -3.8990005416       -1.1032140389       -0.4754617670
 H         -3.7338704171        0.4995844872        1.4627656300
 H         -3.0436125830        1.1972944786        0.0182318156
 H         -1.4386321329       -0.1368076571        2.2679750840
 H         -1.5136958065        1.5817418602        1.9736023855
  22
  -27.512808060000001        5.2530415925700479E-002 !md5
 N          0.6104518274        0.3678918707       -1.1032372833
 C         -0.4459317742        0.9869478680       -0.2440355673
 C         -1.7607731929        1.1910716532       -1.0280101330
 C         -2.4706727983       -0.1406997374       -1.3265941788
 C         -2.7151680732       -0.9432047838       -0.0379008034
 C         -1.4007805373       -1.1782343263        0.7245818858
 C         -0.6906174248        0.1510402354        1.0313789390
 Cl         3.4469015186       -0.1772507877        0.8695643292
 H          0.3064163861       -0.5521619966       -1.4463066004
 H          1.4852219107        0.2259475363       -0.5697268592
 H          0.8227144287        0.9532401966       -1.9229195946
 H         -0.0738408092        1.9797933463        0.0654984514
 H         -1.5525011956        1.7302107407       -1.9604489359
 H         -2.4324658854        1.8406648706       -0.4542769368
 H         -1.8641089874       -0.7361332029       -2.0191515015
 H         -3.4173565676        0.0369220904       -1.8556671286
 H         -3.2125582403       -1.8972966369       -0.2609111884
 H         -3.4141824611       -0.3936118121        0.6047296649
 H         -0.7413276066       -1.8201167260        0.1285611707
 H         -1.5866619499       -1.7395439227        1.6508656751
 H          0.2646862577       -0.0342128300        1.5381446822
 H         -1.2937943445        0.7310667449        1.7399206050
  22
  -27.512784809999999        5.1253777506083058E-002 !mtd1
 N          0.6140852101        0.3652495852        1.1244360225
 C         -0.4405545476        0.9886882177        0.2661373090
 C         -0.6754318607        0.1639627135       -1.0183062496
 C         -1.3803556265       -1.1713963908       -0.7268618399
 C         -2.7003550779       -0.9491244519        0.0297328977
 C         -2.4678113099       -0.1562334866        1.3266487750
 C         -1.7603718903        1.1805828989        1.0447780335
 Cl         3.4219903736       -0.1718091974       -0.8955415644
 H          0.8260183586        0.9464085042        1.9472613715
 H          1.4886038260        0.2253591795        0.5900246413
 H          0.3094026051       -0.5564317250        1.4625732938
 H         -0.0705627812        1.9857279153       -0.0322598858
 H          0.2827820415       -0.0116859602       -1.5229928933
 H         -1.2787127838        0.7477569953       -1.7236551573
 H         -0.7211171637       -1.8146578160       -0.1320912338
 H         -1.5576742374       -1.7261051457       -1.6587844876
 H         -3.1940061195       -1.9076171254        0.2419143366
 H         -3.3985033094       -0.3979803993       -0.6125239951
 H         -1.8649795592       -0.7553913612        2.0192087698
 H         -3.4192077698        0.0141618368        1.8496044683
 H         -1.5588804819        1.7112255750        1.9835469811
 H         -2.4310131944        1.8337377371        0.4738832043
  22
  -27.512749070000002        4.9351563098471898E-002 !md6
 N          0.6109510941        0.3303561533       -1.1069222047
 C         -0.4365163770        0.9649968541       -0.2480984845
 C         -1.7495699663        1.1852213234       -1.0306737469
 C         -2.4793501659       -0.1369687927       -1.3235048985
 C         -2.7335065238       -0.9311130734       -0.0315659604
 C         -1.4212137008       -1.1834699192        0.7289928371
 C         -0.6902626166        0.1358658640        1.0300346650
 Cl         3.4574115364       -0.1470796338        0.8689479068
 H          0.8227967784        0.9062637822       -1.9334381840
 H          0.2988111433       -0.5933520679       -1.4400850073
 H          1.4855177310        0.1897131759       -0.5773937154
 H         -0.0511935822        1.9536995569        0.0585293726
 H         -1.5350077335        1.7180019674       -1.9653316520
 H         -2.4107669305        1.8466665798       -0.4582972510
 H         -1.8826277947       -0.7436485743       -2.0148138730
 H         -3.4241838535        0.0527287666       -1.8516776451
 H         -3.2459268012       -1.8782293669       -0.2502459226
 H         -3.4227346625       -0.3686495398        0.6105158806
 H         -0.7728834818       -1.8374017609        0.1338775156
 H         -1.6137914475       -1.7388223107        1.6575095177
 H          0.2636239247       -0.0625469193        1.5344824117
 H         -1.2825163838        0.7266728485        1.7388798478
  22
  -27.512748739999999        4.9334332329117499E-002 !md5
 N          0.6108624968        0.3487043123       -1.1114034599
 C         -0.4381984370        0.9743711446       -0.2479967617
 C         -1.7543173151        1.1898797425       -1.0267405671
 C         -2.4768546278       -0.1354918388       -1.3233478383
 C         -2.7227157819       -0.9370072787       -0.0343261615
 C         -1.4070685616       -1.1840516161        0.7221611642
 C         -0.6843365208        0.1388007807        1.0273924894
 Cl         3.4467382860       -0.1604170751        0.8743198191
 H          1.4854356764        0.2057598888       -0.5825487033
 H          0.8220714501        0.9325412247       -1.9355046602
 H          0.3016293768       -0.5711122092       -1.4505490863
 H         -0.0576589288        1.9640607871        0.0614233968
 H         -1.5450344394        1.7276595523       -1.9597280578
 H         -2.4181706830        1.8450161447       -0.4502050356
 H         -1.8784747132       -0.7354743393       -2.0190507672
 H         -3.4242915406        0.0508157054       -1.8480601078
 H         -3.2292511548       -1.8865710463       -0.2560760739
 H         -3.4142004027       -0.3820286777        0.6118185416
 H         -0.7557125047       -1.8308295332        0.1225394610
 H         -1.5937229929       -1.7448861969        1.6485857084
 H          0.2716237652       -0.0552785798        1.5295987226
 H         -1.2793603360        0.7229576527        1.7394223325
  22
  -27.512326020000000        3.1541372962266050E-002 !mtd13
 N          0.6762596673        1.8052967432        0.0084504779
 C         -0.8138378545        1.6694039806        0.0148016270
 C         -1.3211902631        0.9622134476       -1.2610932259
 C         -0.9698858742       -0.5350766002       -1.2739263475
 C         -1.4895369921       -1.2403711869       -0.0102754873
 C         -0.9573727633       -0.5599547450        1.2618006193
 C         -1.3079516045        0.9374780659        1.2819458477
 Cl         2.3684959085       -1.3091926489       -0.0089211132
 H          1.0022031603        2.3147389667       -0.8240807159
 H          1.1291578942        0.8776160219        0.0014395217
 H          1.0100054462        2.3059790948        0.8432241980
 H         -1.2330727246        2.6912481220        0.0267950631
 H         -0.9057156172        1.4592335299       -2.1464377783
 H         -2.4084965591        1.0812646548       -1.3382770960
 H          0.1173088523       -0.6584129642       -1.3420187952
 H         -1.3696128629       -1.0175582017       -2.1767417830
 H         -1.2236731646       -2.3064847373       -0.0220802605
 H         -2.5863068823       -1.2137495469       -0.0046124941
 H          0.1303264476       -0.6849655668        1.3169209065
 H         -1.3483845143       -1.0600187038        2.1588502417
 H         -0.8825470502        1.4169084285        2.1722726403
 H         -2.3942740585        1.0554082853        1.3731774812
  22
  -27.512314700000001        3.1165800188752688E-002 !mtd2
 N          0.6767385935        1.8044424503        0.0096777502
 C         -0.8133303093        1.6687000716        0.0148286884
 C         -1.3198480370        0.9614348281       -1.2613845797
 C         -0.9702140018       -0.5362475234       -1.2730925161
 C         -1.4926730949       -1.2402029821       -0.0099142741
 C         -0.9601472323       -0.5604042989        1.2623135529
 C         -1.3086183977        0.9375438560        1.2820031746
 Cl         2.3702759861       -1.3078150580       -0.0101839487
 H          1.1285920274        0.8788591264        0.0022531120
 H          1.0106419462        2.3055076531        0.8470662619
 H          1.0031038045        2.3150592484       -0.8220093680
 H         -1.2323439249        2.6906565419        0.0261866584
 H         -0.9025355825        1.4574837307       -2.1464080833
 H         -2.4069070047        1.0817330903       -1.3400789366
 H          0.1169701584       -0.6607214645       -1.3390459831
 H         -1.3686974154       -1.0187875091       -2.1764315408
 H         -1.2293980547       -2.3069592368       -0.0211986451
 H         -2.5893775664       -1.2109073683       -0.0052698996
 H          0.1273599610       -0.6869532544        1.3179925422
 H         -1.3523245867       -1.0597939096        2.1592152909
 H         -0.8824465378        1.4164562707        2.1722310664
 H         -2.3947405824        1.0571791704        1.3734063865
  22
  -27.512273199999999        2.9826768433409357E-002 !mtd2
 N          0.6759886142        1.8056243559        0.0046423459
 C         -0.8140568038        1.6696094050        0.0146567947
 C         -1.3244407971        0.9633297348       -1.2605318628
 C         -0.9716758911       -0.5335626052       -1.2755390058
 C         -1.4885280205       -1.2403579327       -0.0115880808
 C         -0.9541816486       -0.5609345606        1.2601414910
 C         -1.3049457793        0.9364634817        1.2823436394
 Cl         2.3678706075       -1.3097754096       -0.0055755549
 H          1.0118144306        2.3084590269        0.8373188563
 H          1.0005561834        2.3143484138       -0.8317910622
 H          1.1276859144        0.8799916505       -0.0011888498
 H         -1.2333584158        2.6913994969        0.0284950930
 H         -0.9122475457        1.4616178434       -2.1466937249
 H         -2.4121087684        1.0812901741       -1.3342422611
 H          0.1155440108       -0.6556587153       -1.3453615906
 H         -1.3721895802       -1.0156185987       -2.1782312488
 H         -1.2223838461       -2.3063913478       -0.0250327129
 H         -2.5852810322       -1.2140477164       -0.0037426610
 H          0.1336099568       -0.6858690335        1.3133543879
 H         -1.3436095228       -1.0618729703        2.1573895628
 H         -0.8774814616        1.4152560480        2.1720383746
 H         -2.3910652245        1.0540653006        1.3762870817
  22
  -27.505720709999999        2.9059644419658908E-005 !mtd7
 N          0.7600997457        1.8903196678       -0.0544687767
 C         -0.6761763241        1.4766361338       -0.1284081518
 C         -0.9252691545        0.6055905227       -1.3867303968
 C         -2.1455338825       -0.3141318843       -1.2099149478
 C         -1.9240573620       -1.3322714159       -0.0632460320
 C         -0.9852716459       -0.7836458674        1.0402126433
 C         -1.1013330095        0.7451021749        1.1749965184
 Cl         2.6853777010       -1.0224205556        0.2488440588
 H          1.0537050582        2.3801460302       -0.9102398597
 H          1.3602541605        1.0564844357        0.0529219494
 H          0.9352283641        2.5088047375        0.7487533583
 H         -1.2839727190        2.3913362749       -0.2249749791
 H         -0.0351301642       -0.0066431059       -1.5648196779
 H         -1.0288111877        1.2353345688       -2.2790422081
 H         -2.3850644197       -0.8287048469       -2.1499347046
 H         -3.0233161687        0.3040540198       -0.9856693491
 H         -1.5134507660       -2.2641688419       -0.4720491983
 H         -2.8886711792       -1.6125948247        0.3786523535
 H          0.0526479567       -1.0409788607        0.7980035956
 H         -1.1868010768       -1.2741014077        2.0019033730
 H         -0.4949326991        1.1067010897        2.0134568894
 H         -2.1364982809        1.0041575239        1.4263034566
  22
  -27.505671809999999        2.7594174848786492E-005 !mtd1
 N          0.7600871262        1.8887882645       -0.0558239394
 C         -0.6775001657        1.4793958109       -0.1286767224
 C         -0.9305399616        0.6112651850       -1.3884502166
 C         -2.1461270872       -0.3141458669       -1.2085747297
 C         -1.9155460861       -1.3339962731       -0.0653397350
 C         -0.9796721737       -0.7815363884        1.0387528126
 C         -1.1027089870        0.7465782808        1.1737647450
 Cl         2.6831526383       -1.0257660555        0.2516623832
 H          1.3568100610        1.0554162474        0.0511563313
 H          0.9381314668        2.5086275088        0.7488686531
 H          1.0544373414        2.3772881092       -0.9120253825
 H         -1.2829140568        2.3959770920       -0.2225409058
 H         -0.0389892553        0.0032225082       -1.5736812592
 H         -1.0416687146        1.2435921516       -2.2780207243
 H         -2.3871159692       -0.8277524326       -2.1487504093
 H         -3.0258186411        0.2995286404       -0.9794756263
 H         -1.4984064088       -2.2615134337       -0.4774761547
 H         -2.8775095099       -1.6229144354        0.3767936849
 H          0.0594695232       -1.0339470337        0.7966775487
 H         -1.1791288487       -1.2732009416        2.0002402945
 H         -0.5000741823        1.1108383550        2.0137998940
 H         -2.1396955330        1.0011063744        1.4221467440
  22
  -27.504821060000001        1.1216046014426535E-005 !mtd7
 N          0.8768806202        0.2151180021       -1.1905503801
 C         -0.3665024830        0.6263376757       -0.4666836596
 C         -1.5802533838        0.6394331845       -1.4313514375
 C         -2.9077910377        0.4466000650       -0.6783110130
 C         -2.9679763267       -0.9374438918        0.0156088200
 C         -1.5659754820       -1.4542716899        0.4252110689
 C         -0.6111502340       -0.2948344263        0.7603773804
 Cl         3.5250310037        0.3001864719        1.1017561274
 H          1.0633439769        0.8269181898       -1.9966158724
 H          0.7850002838       -0.7503007014       -1.5395088570
 H          1.6967210334        0.2446101486       -0.5648552077
 H         -0.2154123796        1.6551475035       -0.1001741596
 H         -1.4553919407       -0.1722202758       -2.1554602855
 H         -1.5916870059        1.5610931118       -2.0263121557
 H         -3.7624018786        0.5833647076       -1.3541189741
 H         -3.0040707298        1.2379820423        0.0749398064
 H         -3.4525523828       -1.6627430809       -0.6501751230
 H         -3.6143905372       -0.8833527530        0.9007948250
 H         -1.1378877104       -2.0408619247       -0.3964845845
 H         -1.6398810643       -2.1520994564        1.2699402806
 H          0.3477066223       -0.6764650961        1.1301191510
 H         -1.0340228203        0.2895096410        1.5859394854
  22
  -27.504546070000000        8.3842289350728166E-006 !mtd7
 N          0.6592305319        1.8607173482        0.1131223916
 C         -0.6301769575        1.1022244434        0.0737381526
 C         -0.7779079307        0.3281356744       -1.2633880332
 C         -1.6736727747       -0.9293797172       -1.1385798541
 C         -2.7602129604       -0.7411916805       -0.0650158060
 C         -2.1362393325       -0.5352651362        1.3383315758
 C         -0.7457841153        0.1445974131        1.2747968783
 Cl         3.1166537803       -0.6114684750       -0.1389904019
 H          0.7371907312        2.5102207896       -0.6805660236
 H          1.4503793233        1.1990434143        0.0600431578
 H          0.7555875609        2.3982419314        0.9848335038
 H         -1.4593909188        1.8243701758        0.1445283898
 H          0.2207393707        0.0472851219       -1.6156392406
 H         -1.1765799593        0.9977354435       -2.0343234921
 H         -1.0550296482       -1.7936947183       -0.8680023750
 H         -2.1229514212       -1.1860454993       -2.1071290725
 H         -3.4571974326       -1.5898066230       -0.0625428286
 H         -3.3687667182        0.1329476493       -0.3274126742
 H         -2.0536544631       -1.5023133203        1.8502073524
 H         -2.8110570080        0.0636100208        1.9627711115
 H          0.0383646979       -0.6148230663        1.1849460817
 H         -0.5249760892        0.6815686627        2.2049243113
  22
  -27.504520180000000        8.1576469950839104E-006 !mtd2
 N          0.6589124569        1.8640572440       -0.0662964687
 C         -0.6301048747        1.1040843633       -0.0460806825
 C         -0.7319333966        0.1561321422       -1.2560333865
 C         -2.1207018051       -0.5249171016       -1.3398484473
 C         -2.7597059554       -0.7422168594        0.0549826520
 C         -1.6848535301       -0.9378804713        1.1389558738
 C         -0.7909646363        0.3189299449        1.2830084539
 Cl         3.1145343298       -0.6149757693        0.0956234123
 H          0.7580630236        2.4179267606       -0.9273861948
 H          1.4501612980        1.2017276809       -0.0237924677
 H          0.7337239480        2.4985298829        0.7398070320
 H         -1.4593267651        1.8259646368       -0.1193938212
 H          0.0521196916       -0.6031475115       -1.1639997551
 H         -0.5018024232        0.7008821439       -2.1793503754
 H         -2.0312557047       -1.4879728875       -1.8580629348
 H         -2.7893993860        0.0778593021       -1.9670963349
 H         -3.4557851144       -1.5914161763        0.0382634948
 H         -3.3719798171        0.1293082601        0.3174198962
 H         -1.0629257851       -1.7999909968        0.8689103741
 H         -2.1446700400       -1.2018095038        2.1005915325
 H          0.2042199767        0.0356814324        1.6430096730
 H         -1.1977947739        0.9820365763        2.0552980795
  22
  -27.504490740000001        7.9074275408851116E-006 !md7
 N          0.4231274582       -0.1340178546        1.7387663609
 C         -0.0951655865        0.5148941078        0.4942358467
 C         -0.2643955993       -0.5124885277       -0.6466295536
 C         -1.4423356461       -1.4694019015       -0.3964805074
 C         -2.7480951964       -0.6939128194       -0.1564500827
 C         -2.5928726721        0.3021868984        1.0044977266
 C         -1.4188750704        1.2652208281        0.7587009158
 Cl         3.1807756989        0.3118903299       -1.2374973247
 H          0.5613270309        0.5544375091        2.4906967568
 H          1.3230710302       -0.6068263355        1.5647398661
 H         -0.2390527743       -0.8410969840        2.0812648896
 H          0.6590422652        1.2564803229        0.1759597535
 H          0.6669211474       -1.0786756358       -0.7717516319
 H         -0.4191972869        0.0152703368       -1.5952169067
 H         -1.2268699214       -2.1015240208        0.4730526833
 H         -1.5573203873       -2.1679582174       -1.2370005437
 H         -3.5828165121       -1.3837027398        0.0302868571
 H         -3.0194350754       -0.1485629076       -1.0689523143
 H         -2.4305873474       -0.2474906919        1.9391692886
 H         -3.5255827023        0.8622359268        1.1596861472
 H         -1.2937029068        1.9409489987        1.6138224779
 H         -1.6510915631        1.9107917580       -0.0966690196
  22
  -27.504171260000000        5.6391335332761068E-006 !md7
 N          0.3989205622       -0.1668467727        1.7755515989
 C         -0.0754186001        0.4766004633        0.5107751431
 C         -0.2497671654       -0.5631725122       -0.6179793069
 C         -1.4581520500       -1.4839327774       -0.3777395722
 C         -2.7468287707       -0.6698393239       -0.1762833124
 C         -2.5878966463        0.3400832543        0.9721568426
 C         -1.3830501736        1.2668099359        0.7362239812
 Cl         3.1689261558        0.3424181299       -1.2504655743
 H          0.5421026400        0.5294956969        2.5191755770
 H          1.2877314949       -0.6687257609        1.6280059684
 H         -0.2906366663       -0.8484077277        2.1156085503
 H          0.7053902439        1.1922235290        0.1973400297
 H          0.6681296096       -1.1559531936       -0.7160202350
 H         -0.3713916905       -0.0459091441       -1.5771333077
 H         -1.2775392028       -2.1080312172        0.5054115819
 H         -1.5752031053       -2.1921475715       -1.2098354560
 H         -3.6035131959       -1.3339198621        0.0040376840
 H         -2.9850634518       -0.1320297070       -1.1023960214
 H         -2.4601247614       -0.1987638411        1.9184059371
 H         -3.5077842884        0.9277681793        1.0990997384
 H         -1.2567403579        1.9521371840        1.5834822532
 H         -1.5799177619        1.9050655103       -0.1333801085
