  22
  -27.434484479999998       0.14892633109963921      !gc
 N          0.3054051840       -1.8899621212       -0.0040714593
 C          1.5357653667       -1.0357304966        0.0042997583
 C          1.6207621127       -0.1632982037       -1.2665472188
 C          0.5720747966        0.9612352320       -1.2688366585
 C          0.6769670977        1.8234570481       -0.0002801505
 C          0.5561723185        0.9611807542        1.2669218422
 C          1.6042752764       -0.1643701974        1.2774263811
 Cl        -2.7033021222       -0.0638005013       -0.0030649889
 H          0.2642200970       -2.4985924117        0.8283527715
 H          0.2711643687       -2.4923546814       -0.8419124568
 H         -0.5492912052       -1.3107192457       -0.0053761564
 H          2.4039478641       -1.7181694460        0.0095700974
 H          1.5027019465       -0.7972887599       -2.1550938870
 H          2.6234429761        0.2736157273       -1.3451395319
 H         -0.4333655643        0.5281687155       -1.3362873169
 H          0.6761647298        1.5845223066       -2.1685644805
 H         -0.0828811465        2.6180851468       -0.0051030554
 H          1.6431040301        2.3439681319        0.0057711187
 H         -0.4503926021        0.5288746510        1.3224253486
 H          0.6499233767        1.5844129310        2.1678070840
 H          1.4736389110       -0.7990591209        2.1631638671
 H          2.6061156593        0.2717647098        1.3700507409
  22
  -27.434367959999999       0.13165052826743887      !gc
 N          0.3070456684       -1.8917982502        0.0010610023
 C          1.5366677073       -1.0365230344        0.0049189203
 C          1.6162435219       -0.1643067034       -1.2663903625
 C          0.5656870382        0.9585228973       -1.2657687857
 C          0.6720387354        1.8209089372        0.0026332490
 C          0.5577648976        0.9585494434        1.2704031701
 C          1.6085058161       -0.1645181825        1.2773608717
 Cl        -2.7004549711       -0.0590812300       -0.0095428026
 H          0.2722292967       -2.4968568501       -0.8342222129
 H         -0.5477739368       -1.3132558312       -0.0009847742
 H          0.2676067660       -2.4980400492        0.8363285848
 H          2.4055545165       -1.7181067704        0.0075134978
 H          1.4963744773       -0.7987875971       -2.1543387062
 H          2.6179330157        0.2742568710       -1.3482988946
 H         -0.4392248814        0.5239641786       -1.3313138518
 H          0.6668195068        1.5821819358       -2.1655836546
 H         -0.0904091487        2.6130481795        0.0002647098
 H          1.6364753470        2.3446067962        0.0056372854
 H         -0.4475874320        0.5238862189        1.3295889885
 H          0.6533032928        1.5821179592        2.1708688965
 H          1.4830963508       -0.7990109322        2.1639955917
 H          2.6097033784        0.2740113100        1.3655096721
  22
  -27.434365610000000       0.13132355200322912      !md7
 N          0.3067402537       -1.8913444998       -0.0101381017
 C          1.5368590270       -1.0368254681        0.0035027419
 C          1.6263638700       -0.1634768094       -1.2662960172
 C          0.5744686223        0.9579774804       -1.2733889882
 C          0.6700156316        1.8200052567       -0.0038309535
 C          0.5483325518        0.9572784527        1.2631131928
 C          1.5992967241       -0.1655445028        1.2769136774
 Cl        -2.6996911863       -0.0580745886        0.0049150125
 H         -0.5473288599       -1.3126131374       -0.0129643884
 H          0.2631742233       -2.5013143921        0.8217740993
 H          0.2754168611       -2.4927756113       -0.8492291449
 H          2.4052844832       -1.7189367480        0.0119998824
 H          1.5152750334       -0.7971262728       -2.1559857645
 H          2.6281786424        0.2765158798       -1.3387335211
 H         -0.4294152678        0.5222876434       -1.3470897160
 H          0.6820837060        1.5821439532       -2.1721103686
 H         -0.0943824245        2.6102580539       -0.0115854638
 H          1.6331624864        2.3460031305        0.0063059248
 H         -0.4573165005        0.5226526790        1.3166685468
 H          0.6385330990        1.5809767353        2.1640560797
 H          1.4678230026       -0.8006307238        2.1622410864
 H          2.5997150034        0.2732195112        1.3724922409
  22
  -27.434308640000001       0.12364057657682666      !gc
 N          0.3081329418       -1.8926672704       -0.0014129361
 C          1.5375303338       -1.0370681318        0.0046181656
 C          1.6186914226       -0.1644023874       -1.2662321117
 C          0.5662325102        0.9566055182       -1.2674845154
 C          0.6687426668        1.8190936702        0.0011886744
 C          0.5546410706        0.9566929802        1.2690111080
 C          1.6067028413       -0.1651536142        1.2772464029
 Cl        -2.6991974200       -0.0560088008       -0.0064500857
 H          0.2678148363       -2.4992119563        0.8325478030
 H          0.2744670700       -2.4972008304       -0.8377560014
 H         -0.5471555183       -1.3142144623       -0.0040477491
 H          2.4067132328       -1.7182596386        0.0084845364
 H          1.5021438116       -0.7987334858       -2.1547299391
 H          2.6198057479        0.2759740644       -1.3454479647
 H         -0.4378101642        0.5203419513       -1.3349895729
 H          0.6680369135        1.5804756527       -2.1670760122
 H         -0.0957621273        2.6092488691       -0.0023452307
 H          1.6317924428        2.3453126490        0.0055650269
 H         -0.4502636735        0.5209745364        1.3278387707
 H          0.6489904990        1.5806331430        2.1693464814
 H          1.4807353603       -0.7999715552        2.1635737646
 H          2.6072872464        0.2744631907        1.3669068595
  22
  -27.434264979999998       0.11805823194787568      !md8
 N          0.3081041005       -1.8927104420        0.0019409620
 C          1.5374124043       -1.0369862429        0.0050402210
 C          1.6156542516       -0.1646206250       -1.2662446693
 C          0.5635289528        0.9567317903       -1.2651998786
 C          0.6693511620        1.8193360892        0.0031365040
 C          0.5571930746        0.9569198038        1.2710738239
 C          1.6094157667       -0.1647613274        1.2773015100
 Cl        -2.6992300497       -0.0562772141       -0.0107088001
 H         -0.5465075427       -1.3147666225       -0.0006853581
 H          0.2689339140       -2.4981181523        0.8374266217
 H          0.2735767328       -2.4990614089       -0.8334824728
 H          2.4066526938       -1.7181086815        0.0071509298
 H          1.4966516555       -0.7991218325       -2.1542909846
 H          2.6167027144        0.2754131562       -1.3480927405
 H         -0.4407893863        0.5206769525       -1.3300115883
 H          0.6631372265        1.5803748388       -2.1651988279
 H         -0.0942983406        2.6103246222        0.0011780818
 H          1.6329990029        2.3444887291        0.0054989946
 H         -0.4475277000        0.5209492474        1.3311743420
 H          0.6526505907        1.5806872891        2.1714006450
 H          1.4858839616       -0.7992019212        2.1642383371
 H          2.6101027415        0.2751906895        1.3642013180
  22
  -27.433794169999999        7.1734319019562648E-002 !gc
 N          0.2997761239       -1.9613206733       -0.0030516814
 C          1.1018791220       -0.6957962423        0.0017129512
 C          0.8275486347        0.1356530226       -1.2646909249
 C          1.6388744100        1.4424862221       -1.2641740268
 C          1.3517202930        2.2702867705        0.0007509569
 C          1.6192281598        1.4453154986        1.2718712574
 C          0.8076820554        0.1383137093        1.2624173431
 Cl        -3.0184596859       -0.9524518592       -0.0016241999
 H          0.4982972275       -2.5331971995       -0.8386556745
 H         -0.7080838115       -1.7355968824       -0.0076265816
 H          0.4899819360       -2.5345099636        0.8346227638
 H          2.1710481511       -0.9616847423        0.0102990397
 H         -0.2433934158        0.3654526049       -1.3071986160
 H          1.0344359276       -0.4617084494       -2.1615258289
 H          1.4326765710        2.0294603286       -2.1703678203
 H          2.7094387344        1.2052026751       -1.3079116350
 H          0.3031936786        2.5946120602       -0.0077370110
 H          1.9440501966        3.1962345889        0.0043253192
 H          1.3989346583        2.0342387461        2.1735691634
 H          2.6889417308        1.2080165415        1.3327285349
 H         -0.2633490278        0.3683800188        1.2873739399
 H          1.0001908262       -0.4573098691        2.1636498941
  22
  -27.433714259999999        6.5917827650088995E-002 !mtd4
 N          0.3154302636       -1.9792078840        0.0017221277
 C          1.1073481194       -0.7072603198        0.0034107221
 C          0.8172216338        0.1219013910       -1.2611182909
 C          1.6101296976        1.4398800782       -1.2630815001
 C          1.3159219369        2.2623609387        0.0035192411
 C          1.6041066000        1.4408050025        1.2721834422
 C          0.8118317437        0.1220172965        1.2671837489
 Cl        -2.9938753240       -0.9217400742       -0.0094815520
 H          0.5113269312       -2.5497126684        0.8388901480
 H          0.5159951176       -2.5507463205       -0.8342786445
 H         -0.6940147905       -1.7593499234       -0.0011440633
 H          2.1787769834       -0.9639289649        0.0057235322
 H         -0.2569513282        0.3368223827       -1.2995727770
 H          1.0290086644       -0.4717691511       -2.1592756715
 H          1.3924602519        2.0244711879       -2.1681384233
 H          2.6837431177        1.2175931868       -1.3106791472
 H          0.2618479748        2.5683335524        0.0009162060
 H          1.8920959224        3.1984348650        0.0045057202
 H          1.3811308406        2.0259683316        2.1756766039
 H          2.6775893085        1.2193035029        1.3257284908
 H         -0.2622189923        0.3359905743        1.3018828903
 H          1.0210642036       -0.4715806862        2.1660164534
  22
  -27.433084590000000        3.3855294064034487E-002 !md8
 N         -0.3734685770       -0.6830283049        1.0549299431
 C          0.8833190022       -0.6370078256        0.2420266382
 C          0.7086110600        0.2620784211       -1.0006139324
 C          0.6113190323        1.7500831065       -0.6259764225
 C          1.8265917731        2.1939369201        0.2046263527
 C          1.9876729743        1.3211379746        1.4602821107
 C          2.0829759366       -0.1702726097        1.0948699106
 Cl        -3.0017832036       -1.5561180441       -1.0425262947
 H         -0.5975441265        0.2473574328        1.4355779165
 H         -0.2868261043       -1.3330989050        1.8524960311
 H         -1.1781113879       -0.9827756801        0.4782959378
 H          1.0853584971       -1.6659289298       -0.1042250386
 H         -0.1832889476       -0.0512180157       -1.5590125360
 H          1.5536135877        0.1125443467       -1.6832668702
 H         -0.3080719785        1.9276090014       -0.0544053086
 H          0.5124175685        2.3702378154       -1.5284431356
 H          1.7464837969        3.2564300965        0.4757000540
 H          2.7330958064        2.1174214790       -0.4092391718
 H          1.1357724050        1.4842047651        2.1320147975
 H          2.8702984988        1.6340302695        2.0363907124
 H          2.1471489395       -0.7827329761        2.0032591840
 H          3.0154114613       -0.3525009609        0.5473341025
  22
  -27.433017790000001        3.1544775137075418E-002 !gc
 N         -0.3957331423       -0.6258385634       -1.0383315976
 C          0.8670074392       -0.6129402833       -0.2335660796
 C          2.0704178571       -0.1663908513       -1.0910677062
 C          2.0047958908        1.3287980836       -1.4452198032
 C          1.8758394302        2.1952343887       -0.1816448858
 C          0.6573642098        1.7739866709        0.6561697215
 C          0.7205467864        0.2803203737        1.0175439008
 Cl        -3.0293021464       -1.6140618775        0.9962832075
 H         -0.3196543375       -1.2555681496       -1.8524031875
 H         -0.6137064738        0.3164558369       -1.3938255699
 H         -1.1998515313       -0.9348774600       -0.4657721304
 H          1.0491662380       -1.6486910204        0.1032581667
 H          2.1156594453       -0.7739499836       -2.0044090586
 H          3.0022553160       -0.3724324094       -0.5510467816
 H          1.1495191479        1.5152609335       -2.1063782527
 H          2.8879662022        1.6263384629       -2.0285993540
 H          1.8191904041        3.2614593572       -0.4438418667
 H          2.7855431471        2.0919568009        0.4235118734
 H         -0.2625511162        1.9798722112        0.0949241167
 H          0.5825067991        2.3883642646        1.5648734439
 H         -0.1757188466       -0.0158223291        1.5774470700
 H          1.5649810436        0.1045772990        1.6946680163
  22
  -27.433016970000001        3.1517414984226194E-002 !md2
 N         -0.3871916608       -0.6519551588        1.0398726958
 C          0.8783049553       -0.6254557342        0.2397188956
 C          0.7275104634        0.2675417927       -1.0103990577
 C          0.6430251757        1.7590861333       -0.6465164055
 C          1.8529749728        2.1949259943        0.1961543828
 C          1.9903564921        1.3276301548        1.4584357361
 C          2.0739469835       -0.1666680741        1.1023845863
 Cl        -3.0213214798       -1.5854036907       -1.0214096487
 H         -0.3116178545       -1.2892612424        1.8480944093
 H         -1.1878397379       -0.9576727938        0.4613295119
 H         -0.6105757198        0.2861514843        1.4038946640
 H          1.0723416827       -1.6589204760       -0.0974797826
 H         -0.1615232493       -0.0394111403       -1.5768491274
 H          1.5784747256        0.1041685482       -1.6824289562
 H         -0.2813202965        1.9512841673       -0.0878435397
 H          0.5626224142        2.3742056659       -1.5542577791
 H          1.7803230675        3.2596112187        0.4607513978
 H          2.7659456537        2.1062238249       -0.4064064216
 H          1.1326099736        1.5034327374        2.1194288400
 H          2.8697536883        1.6342726798        2.0427680048
 H          2.1224295723       -0.7747134991        2.0147129729
 H          3.0100092141       -0.3616526497        0.5655232055
  22
  -27.433004550000000        3.1105898692595280E-002 !gc
 N         -0.3928357795       -0.6312291528       -1.0386899724
 C          0.8695139338       -0.6152049236       -0.2333680978
 C          2.0723225383       -0.1665590686       -1.0906280092
 C          2.0035211650        1.3282465722       -1.4458518318
 C          1.8718102643        2.1953221791       -0.1829881660
 C          0.6539340629        1.7717782096        0.6545399071
 C          0.7206119360        0.2785646596        1.0170811896
 Cl        -3.0289541137       -1.6088154387        0.9978398480
 H         -0.6113130314        0.3095847907       -1.3962925860
 H         -1.1967215735       -0.9393631756       -0.4659181687
 H         -0.3158390311       -1.2632859868       -1.8519330390
 H          1.0536941502       -1.6503475086        0.1042056844
 H          2.1193477275       -0.7746522987       -2.0035204396
 H          3.0043654785       -0.3701244881       -0.5500208484
 H          1.1482624173        1.5123317377       -2.1077061147
 H          2.8863780436        1.6273811825       -2.0288910116
 H          1.8127155728        3.2612079370       -0.4460130636
 H          2.7814536793        2.0947046687        0.4227098382
 H         -0.2661903190        1.9749259642        0.0926369064
 H          0.5770803725        2.3866798060        1.5627241652
 H         -0.1750384099       -0.0193305204        1.5770392715
 H          1.5653424257        0.1053587911        1.6944878604
  22
  -27.432961440000000        2.9718765763141898E-002 !gc
 N         -0.4013092737       -0.6268828674        1.0388280780
 C          0.8656646007       -0.6142730701        0.2407440822
 C          0.7253615090        0.2768048963       -1.0120994030
 C          0.6592189804        1.7706724530       -0.6535407128
 C          1.8733727606        2.1942987413        0.1892232587
 C          1.9965008514        1.3305299898        1.4552484231
 C          2.0645366546       -0.1656638728        1.1043253153
 Cl        -3.0221981088       -1.6109568733       -1.0145831270
 H         -1.2017040436       -0.9354590331        0.4623556432
 H         -0.6209257872        0.3154904503        1.3930936711
 H         -0.3297459647       -1.2571119644        1.8539992627
 H          1.0503437543       -1.6503968806       -0.0935422493
 H         -0.1679903733       -0.0209289690       -1.5766515311
 H          1.5734826730        0.1005943429       -1.6844417801
 H         -0.2633521108        1.9765782422       -0.0968383913
 H          0.5879225988        2.3836086047       -1.5635211001
 H          1.8150761135        3.2610738874        0.4488133156
 H          2.7860429158        2.0900134917       -0.4112741984
 H          1.1378179631        1.5179339441        2.1118428193
 H          2.8766654759        1.6296403318        2.0423298044
 H          2.1046856293       -0.7711493439        2.0187556261
 H          2.9994464752       -0.3725306410        0.5699157874
  22
  -27.432931839999998        2.8802325282169087E-002 !gc
 N         -0.3855671628       -0.6474704874       -1.0491794269
 C          0.8711494168       -0.6211577002       -0.2353558924
 C          2.0775827614       -0.1691416133       -1.0857729829
 C          2.0041043453        1.3242043340       -1.4464150862
 C          1.8577460011        2.1949347921       -0.1876674847
 C          0.6354812881        1.7677798362        0.6415090523
 C          0.7081523269        0.2764998356        1.0105282529
 Cl        -3.0175719132       -1.5936938099        1.0114877334
 H         -1.1915243737       -0.9526800995       -0.4787229195
 H         -0.3016325588       -1.2857711103       -1.8564464608
 H         -0.6045988576        0.2905469949       -1.4160997912
 H          1.0587127843       -1.6538911361        0.1077120556
 H          2.1336660567       -0.7798380406       -1.9964145268
 H          3.0069451652       -0.3665721927       -0.5383173081
 H          1.1535123961        1.5018542400       -2.1159853238
 H          2.8903019901        1.6258654581       -2.0230523419
 H          1.7951811264        3.2596064304       -0.4547673307
 H          2.7629846541        2.1011227505        0.4256710693
 H         -0.2810612107        1.9629827239        0.0709931194
 H          0.5472433224        2.3859302830        1.5464378987
 H         -0.1897340615       -0.0243637468        1.5652969394
 H          1.5490149434        0.1108333882        1.6945923056
  22
  -27.431392209999998        5.6475826217955325E-003 !gc
 N         -0.3553410840       -1.2138719250        1.0489111522
 C          0.6120766950       -0.3010402125        0.3589909520
 C         -0.0746321579        1.0082701968       -0.0702356628
 C          0.9127762483        1.9534369642       -0.7757438678
 C          2.1307959916        2.2466985881        0.1177347755
 C          2.8206712719        0.9426120224        0.5553913385
 C          1.8266564088        0.0001865264        1.2562315164
 Cl        -3.0672795442       -1.7408869369       -1.0646371478
 H         -0.7067882528       -0.7756108080        1.9132417010
 H          0.0866674053       -2.1101212316        1.3080395492
 H         -1.1708963618       -1.4165698592        0.4460974803
 H          0.9773178666       -0.8062937056       -0.5495560321
 H         -0.4831526341        1.4979398366        0.8212478654
 H         -0.9410523017        0.7897069734       -0.7071217059
 H          0.4135744138        2.8861202590       -1.0743153245
 H          1.2515545824        1.4916114795       -1.7118484077
 H          1.8038522880        2.8007381947        1.0069960083
 H          2.8406566172        2.9107150813       -0.3954996123
 H          3.6809143450        1.1550720173        1.2059852886
 H          3.2387865888        0.4392937464       -0.3256003386
 H          1.4705856245        0.4619723379        2.1838446723
 H          2.3120371269       -0.9351670055        1.5620906892
  22
  -27.431389209999999        5.6296823214480908E-003 !gc
 N         -0.3484166365       -1.2161260841       -1.0490060754
 C          0.6141289481       -0.3007894225       -0.3556033135
 C          1.8328908787        0.0002720906       -1.2464445738
 C          2.8219258625        0.9447362255       -0.5420270693
 C          2.1286223473        2.2491204708       -0.1108683564
 C          0.9059210327        1.9567082499        0.7765528106
 C         -0.0768169055        1.0088017778        0.0674978968
 Cl        -3.0698743024       -1.7432533840        1.0523320498
 H          0.0959652700       -2.1117807839       -1.3040667407
 H         -0.6960245405       -0.7796641365       -1.9164005994
 H         -1.1668616602       -1.4188958017       -0.4501465587
 H          0.9749450360       -0.8037971101        0.5559543573
 H          1.4811741950        0.4603738072       -2.1770617475
 H          2.3208920241       -0.9349870434       -1.5483189536
 H          3.6856618466        1.1565604396       -1.1880472738
 H          3.2354217878        0.4435321703        0.3423618573
 H          1.8061061730        2.8010645105       -1.0030445214
 H          2.8351097256        2.9147797682        0.4048863017
 H          0.4040906559        2.8896460851        1.0701794371
 H          1.2398788809        1.4973357981        1.7155748136
 H         -0.4810781201        1.4960282901       -0.8267304973
 H         -0.9462530116        0.7902756764        0.7003103899
  22
  -27.431372910000000        5.5334109771683158E-003 !gc
 N         -0.3565405677       -1.2119280282        1.0488680016
 C          0.6118986894       -0.3002474197        0.3588413675
 C         -0.0737006708        1.0092223103       -0.0716794486
 C          0.9147970394        1.9533842263       -0.7769986283
 C          2.1322029189        2.2465543255        0.1173291889
 C          2.8211090507        0.9423611998        0.5561751509
 C          1.8261125870        0.0007195456        1.2566855956
 Cl        -3.0683129544       -1.7425333953       -1.0638493288
 H          0.0845541914       -2.1077965047        1.3088419799
 H         -1.1715253233       -1.4147612541        0.4459083954
 H         -0.7087703690       -0.7723882019        1.9132366716
 H          0.9773471252       -0.8063760580       -0.5491349712
 H         -0.4825840376        1.4996625360        0.8192132601
 H         -0.9397784793        0.7908143328       -0.7090844415
 H          0.4163727248        2.8861302429       -1.0766695733
 H          1.2541461520        1.4907045912       -1.7124755347
 H          1.8047541997        2.8011421455        1.0060639747
 H          2.8427756525        2.9100312749       -0.3956175242
 H          3.6808975553        1.1547709455        1.2073881659
 H          3.2397517007        0.4384270304       -0.3242133305
 H          1.4697424319        0.4629391378        2.1839655924
 H          2.3108301697       -0.9348017698        1.5630895093
  22
  -27.431341419999999        5.3520618707011839E-003 !gc
 N         -0.3509366288       -1.2126597660       -1.0509905830
 C          0.6121769875       -0.2989395929       -0.3562548830
 C          1.8329179512       -0.0002709853       -1.2451887989
 C          2.8225841888        0.9424121854       -0.5392643888
 C          2.1310315713        2.2481427009       -0.1093726851
 C          0.9063708799        1.9580999213        0.7761251017
 C         -0.0770027260        1.0120052633        0.0655351216
 Cl        -3.0693004575       -1.7458835966        1.0523066291
 H         -1.1690092298       -1.4152945963       -0.4530493338
 H          0.0928413736       -2.1089640272       -1.3068857361
 H         -0.6980972211       -0.7747537131       -1.9182345825
 H          0.9706631257       -0.8024521301        0.5559432207
 H          1.4835641603        0.4603508668       -2.1764363630
 H          2.3196619345       -0.9364869804       -1.5461258989
 H          3.6877822037        1.1525306992       -1.1838824809
 H          3.2336832365        0.4405279216        0.3458572302
 H          1.8109508959        2.8005431101       -1.0021434687
 H          2.8379258118        2.9125763466        0.4074033768
 H          0.4058502292        2.8919884948        1.0689616707
 H          1.2379857182        1.4980989039        1.7156695256
 H         -0.4787326452        1.4999231467       -0.8294589767
 H         -0.9479695830        0.7952455122        0.6968454464
  22
  -27.426747339999999        4.1421720983076317E-005 !md5
 N          0.0888612703       -1.5406011061       -0.6993431345
 C          1.3286003519       -0.9413803494       -0.1103991702
 C          2.1091451643       -0.1265192469       -1.1640173236
 C          1.3839578172        1.1759984461       -1.5413414707
 C          1.0897974746        2.0286576473       -0.2964424675
 C          0.2801710485        1.2315663526        0.7390480157
 C          0.9980921413       -0.0734693912        1.1235905500
 Cl        -2.8515067097       -0.5896126284        0.8261223276
 H         -0.4197393434       -2.1113239683       -0.0061461952
 H          0.3079975298       -2.1413101221       -1.5100110754
 H         -0.5548234825       -0.8040353683       -1.0241674887
 H          1.9688892908       -1.7782313732        0.2199202293
 H          2.2752052776       -0.7439390941       -2.0565286756
 H          3.1075156463        0.1112871491       -0.7778476660
 H          0.4433476219        0.9400506967       -2.0542324260
 H          1.9731387939        1.7489219602       -2.2717134753
 H          0.5659330029        2.9550147245       -0.5725323154
 H          2.0367496989        2.3522639413        0.1540922393
 H         -0.7109707994        1.0016111734        0.3291337624
 H          0.0861994240        1.8431745127        1.6318529604
 H          0.3856719969       -0.6532261489        1.8259263178
 H          1.9226806069        0.1647395740        1.6628661485
