22
 energy: -27.519925011199 gnorm: 0.000385092489 xtb: 6.5.1 (fef0646)
N           -1.70009004865607        0.07481361282744        0.67232601435322
C           -0.98948597884108        0.03254298518898       -0.63022907597292
C           -0.08537577742729        1.25356741238263       -0.77826449071542
C            1.11664794071111        1.19356475995352        0.16100972033603
C            1.90441854887482       -0.09130795465867       -0.07220432631233
C            1.00559341306868       -1.29659895235408        0.18320131173200
C           -0.19700198250786       -1.26597604147549       -0.75671370413377
Cl          -0.40604091099327        0.05452232659430        3.45411857647924
H           -2.25087347136499        0.93151638308678        0.76268180755393
H           -1.05531771242086        0.05929726101045        1.49818024985673
H           -2.31453458208085       -0.73523448020302        0.78130321095298
H           -1.75278355469512        0.05961951429053       -1.41445726360912
H           -0.65375167857805        2.16509340092230       -0.59193444448656
H            0.27488698029105        1.29079027380510       -1.80714151972393
H            0.79510899003052        1.22512965996837        1.20355956547652
H            1.75665399050499        2.06074925786924       -0.01030888427386
H            2.76625604817795       -0.12372759829199        0.59719786840290
H            2.27608604398506       -0.11706442395141       -1.09951954186292
H            0.68280052951258       -1.28022863329750        1.22572622574653
H            1.56578538286483       -2.22029831316570        0.02841867754256
H           -0.84386340744003       -2.12041878465521       -0.55627249651558
H            0.15858123698350       -1.35204166584667       -1.78424748082582
