40
 energy: -55.280080115473 gnorm: 0.000201202289 xtb: 6.5.1 (fef0646)
N           13.64977606607484        2.16293139309862        1.59428735531974
C           14.70148282705167        2.42775794104132        0.58136718797198
C           14.09779171345610        3.00337492839777       -0.69369686973320
C           13.62565213001935        4.44852517191840       -0.53200729901000
C           12.96151809435122        4.96757562838589       -1.81268073889245
N           11.71462823057848        4.27434222885087       -2.06515596370112
C           11.48777054132187        3.61330383475240       -3.35083008609885
C            9.92233403536380        3.25322075000560       -3.27049955591908
C           10.12829859363424        1.86456169835413       -2.79787835540700
C           10.65339408107342        0.99642140569002       -3.72370459418375
C           12.09412889995071        1.13929772451407       -3.72188748800084
C           12.43397895199964        2.43604291050297       -3.55945675988684
C           10.52509312800099        4.75850674956652       -1.56540016593526
C            9.42481182611210        4.21264723794086       -2.24153885870504
C            8.13783457257975        4.53877706910431       -1.88731507848361
C            7.93775548997262        5.43655250837216       -0.84258551097975
C            9.02162637442201        5.97717435325090       -0.17328755005800
C           10.32492873649709        5.64649369519258       -0.51812365509919
Cl           0.05956237852827        1.75712089288944       -0.91851225337115
H           14.05632722156289        1.77857951354281        2.45430377756553
H           12.96532627574261        1.49389633955391        1.22323902001153
H           13.15397536000253        3.03189530556335        1.82201254310970
H           15.20924011268905        1.49162976578220        0.35264626741012
H           15.42624096659783        3.12790799854812        0.99631755234607
H           13.26133563032685        2.38853608301950       -1.02891298817645
H           14.85611845368320        2.96995140850100       -1.47542799201266
H           14.47213471825064        5.09518222734882       -0.29835506182321
H           12.89131245390636        4.53353059674473        0.26842737458502
H           13.62589773503831        4.81793710012572       -2.66521783922766
H           12.77458263148753        6.04475214594590       -1.72134194471671
H           11.66503447209232        4.33751120388881       -4.16856951146691
H            9.43262240822733        3.31933507322687       -4.24150170698933
H           10.60541574080165        1.85305847270162       -1.82117575988770
H           10.16708284632878        0.82278224677910       -4.67583544875163
H           12.80860541528518        0.38771303535554       -4.02361699169765
H           13.46559845607869        2.72901334619003       -3.70034103654122
H            7.29439900890519        4.11347823082527       -2.41331723072350
H            6.93178304561198        5.71012363918428       -0.55881857780777
H            8.84904446907449        6.67580053538564        0.63251131715132
H           11.14761590748658        6.09896761016322        0.01117047785520
