  11
        -10.83719476
 N         -1.2038652497       -0.2411663797       -0.0000206646
 C          0.0497371954        0.5746138015        0.0000182802
 C          1.3153969626       -0.2658520857       -0.0000083930
 H         -1.2558935740       -0.8457139051       -0.8321078641
 H         -2.0447289927        0.3552975217        0.0015332963
 H         -1.2545510161       -0.8478093947        0.8307951943
 H          0.0379686614        1.2404532917        0.8759550601
 H          0.0378916136        1.2402844167       -0.8760498603
 H          2.2173683142        0.3523452753       -0.0016037564
 H          1.3611313824       -0.9125097758       -0.8786127104
 H          1.3627175902       -0.9103480618        0.8802599918
