11
 energy: -10.838483949272 gnorm: 0.000278769833 xtb: 6.5.1 (fef0646)
N            0.91192524231461       -0.05423327650581       -0.01218569615273
C            2.41153029698038       -0.05958021417566       -0.03328371167178
C            2.90247767935084       -0.41153818181973       -1.42218101607418
H            0.54644547684167        0.18170208380668        0.91886234225072
H            0.55829802474921       -0.98183031728538       -0.28370754208992
H            0.55829862436242        0.63211158445756       -0.69269394448448
H            2.76139882317669       -0.78932472170312        0.69781717085560
H            2.76139943126145        0.93027272717527        0.26205730058395
H            2.56855953028440       -1.40163635755596       -1.72223606159219
H            3.98844626370883       -0.41382057898145       -1.43118505831555
H            2.56856060696948        0.31617725258759       -2.15754378330945
