49
 energy: -78.751595305461 gnorm: 0.000213690162 xtb: 6.5.1 (fef0646)
N            3.42341320403888       -0.77990061110533        1.50455421425468
C            2.68854479457576       -0.57180442258513        0.23827965480865
C            3.46991199528239        0.35880658541279       -0.69288931785671
C            4.69924478116496       -0.28391686876840       -1.24129101170449
C            4.94630536753586       -0.69284269862702       -2.51689124276706
C            6.21343290544382       -1.28277168652364       -2.68382025690792
C            6.95399145456877       -1.33185614861095       -1.53119899760876
C            8.25545928101881       -1.86809788402256       -1.32095767041497
C            9.00228029180013       -1.86051162699850       -0.16888404404811
C           10.25224227242708       -2.48934730565702       -0.29462859221088
C           11.21842759077293       -2.53168295118052        0.84291494984365
C           10.46275743280176       -2.99081249083494       -1.56710057882560
C           11.57010653241715       -3.72869600871304       -2.11272622355704
C           12.47028805996726       -4.46609233454421       -1.36017947267831
C           13.52470297449362       -5.18811629774878       -1.92412737634752
C           13.76001604680337       -5.24963816285209       -3.28714717635435
C           14.83422279173420       -6.00441893428387       -3.88426063767697
C           15.46210271536813       -7.14902534973690       -3.44291903707606
C           15.11032505029223       -7.93661000251734       -2.22362557378816
C           16.48807322385875       -7.56300460741740       -4.32504726020746
C           16.63329444189081       -6.75376023881141       -5.40456951053596
S           15.50260621111804       -5.46268139147670       -5.40276136299812
C           12.86826707645400       -4.50035493584733       -4.09659242199499
N           12.88622297743039       -4.39620844879668       -5.42631582767483
S           11.67105684826191       -3.45786903466766       -5.89967741618901
N           11.05378451513863       -3.13854564234791       -4.44568567110554
C           11.78168817771354       -3.76045212885965       -3.51720997040070
S            9.11662302129892       -2.64450439719955       -2.62048576572340
S            6.07524900433508       -0.62249280269100       -0.22126196453928
H            2.91862119597123       -1.42443857213294        2.12169988659635
H            3.55702682174456        0.11455425605771        1.98917109066165
H            4.35833759845827       -1.16474779471267        1.30357771300146
H            1.71843002576759       -0.12644636129748        0.45404620528532
H            2.53501963110320       -1.53243667167650       -0.25201418137180
H            3.74186574022807        1.27018578301128       -0.15936049021583
H            2.83110134629831        0.63656289220924       -1.53014625847032
H            4.24671630914732       -0.57746547906781       -3.32485645489963
H            6.59070354726916       -1.66428797867906       -3.61645580520018
H            8.66757133759812       -1.40898052319583        0.74898170362091
H           10.98368158059798       -1.73894853550923        1.54846188392701
H           12.23944271614898       -2.39925438244653        0.49226872431656
H           11.15178529976937       -3.48275112591554        1.37059792915647
H           12.35055979148938       -4.51473507098731       -0.29227967146708
H           14.19353925713121       -5.70308253789268       -1.25611047544955
H           14.04549954880660       -7.87458675497193       -2.01293329375423
H           15.66139987949437       -7.57064084169288       -1.35756144661845
H           15.38164402739691       -8.97838129801531       -2.37545889491390
H           17.09028093014287       -8.43676325449035       -4.15213315131205
H           17.33027237542831       -6.83863692057770       -6.21363945060417
