12
 energy: -15.866155820914 gnorm: 0.000201546160 xtb: 6.5.1 (fef0646)
N            1.06565009065563       -0.19636396639871       -0.22730354121720
C            2.53000895984545       -0.38291772769210       -0.13576866361942
C            2.92282190162508       -0.60614201053688        1.31324619674741
Cl           0.21991277272370        2.21124610399659        1.47159553948732
H            0.76360716670767       -0.01719449192151       -1.18719793430883
H            0.77772999213364        0.62911264690056        0.35672079554457
H            0.57360550733467       -1.01187175168262        0.14575363044765
H            3.01467194041314        0.51725825296413       -0.51166166060128
H            2.82494290430481       -1.23500938076343       -0.74917662366677
H            2.54651239705862        0.21280979098304        1.92210004374815
H            4.00266189447307       -0.63991948513580        1.41324055536420
H            2.51376447272434       -1.53810798071323        1.69292166207424
