25
 energy: -33.867419976333 gnorm: 0.000277838036 xtb: 6.5.1 (fef0646)
N            1.02727940613566        0.89220966906140       -2.21599083065591
C            2.48291552849931        1.03326205876938       -2.25329652422971
C            3.01967973105860        1.24856769258871       -0.84174422595568
C            4.55086351890962        1.31344286898176       -0.81947262992283
C            5.07185576719734        2.47928908125377       -1.61286572035101
C            4.91295524877195        3.77593894076894       -1.13732695205828
C            5.36578216516440        4.85848076221683       -1.86900871460020
C            5.98959076343976        4.65985519086998       -3.08938661835594
C            6.15726329096572        3.37321395301259       -3.57073069661721
C            5.69916018818033        2.29210888110140       -2.83746599249956
Cl           0.28983236531039       -1.40218186177028       -0.55001926464007
H            0.64975845012488        0.72855322942539       -3.14271468532414
H            0.59595390030016        1.72599766531204       -1.83008931028692
H            0.64270330973052       -0.32310596698361       -1.32553995241952
H            2.80129855935465        1.86418066453476       -2.89858897051263
H            2.89037876016371        0.10647705227972       -2.66374615151160
H            2.67951051417217        0.42782931389634       -0.21007388657123
H            2.61049538362340        2.17829159354956       -0.44058307838119
H            4.95417982630264        0.38235872259701       -1.22092647769710
H            4.87932146341033        1.40565745504459        0.21800344861384
H            4.43502852237720        3.93651525072257       -0.18108744903367
H            5.23546356084944        5.85997318071343       -1.48531653180868
H            6.34650581482560        5.50430687787219       -3.66021890221620
H            6.64706369987348        3.21023321578313       -4.51985352393607
H            5.83425026125872        1.28971450840111       -3.21870635902857
