33
 energy: -46.514053510363 gnorm: 0.000353318768 xtb: 6.5.1 (fef0646)
N            2.72508413260300       -1.10217923086970       -3.55698190220736
C            2.53195191819139       -0.12222033826577       -2.46089792678662
C            3.15861067316233       -0.64913461054670       -1.16947164817683
C            4.65875860840452       -0.70892525641682       -1.27263630492101
C            5.40851169060427        0.46382702496134       -1.18255838943131
C            6.77962513550569        0.43577734574935       -1.29668939610518
C            5.31748438295387       -1.91713939744906       -1.48519722864803
C            6.69274881229566       -1.96092333768947       -1.59557065911859
C            7.44112725687292       -0.78289353637710       -1.50725040267743
N            8.81264010404270       -0.92426767968562       -1.61714128289819
N            9.48909248850300        0.15701518872564       -1.60155874631529
C           10.86334197567463        0.04058065707594       -1.67765907140110
C           11.56237343271159       -1.17405264861249       -1.64563181708880
C           12.93936458083171       -1.17527802412627       -1.70484874409965
C           13.63706914753146        0.02189203545648       -1.79781781825235
C           12.95208252238041        1.22799101974813       -1.82969518036473
C           11.57369018796718        1.24315386727450       -1.76780271130950
H            2.37762505804640       -0.73018052479681       -4.44816072207801
H            2.22577789568470       -1.97406507652512       -3.34482781251009
H            3.72453398847832       -1.31993361890877       -3.65424160512361
H            1.46572419097979        0.04484645249350       -2.31388295767627
H            3.00398825942370        0.82030942220205       -2.73683525430713
H            2.76211414113710       -1.63631384740447       -0.93433927808892
H            2.88526058838749        0.02294895142320       -0.35672937667740
H            4.91069091433950        1.40573944220700       -1.00625012158201
H            7.37200832967681        1.33416972542411       -1.21901509489812
H            4.75813451958557       -2.83917084369103       -1.53663006232707
H            7.21460837110026       -2.89193895502444       -1.74988922193243
H           11.00242299493675       -2.09330045317568       -1.56812045506255
H           13.47810769559147       -2.11062123965631       -1.67763421785106
H           14.71543780757568        0.01358180332366       -1.84262577159782
H           13.49822402423485        2.15625094038622       -1.90054548501634
H           11.02306417059520        2.17041474276097       -1.79084333347313
