  22
        -27.94067944
 N         -3.4671132596       -0.3140715447        0.8105277408
 C         -2.7805224646       -0.0601218113       -0.4919929117
 C         -1.2963870618        0.0448496907       -0.3426817500
 C         -0.5016831496       -1.1008732809       -0.3328675833
 C          0.8611022395       -1.0179875307       -0.1625826136
 C          1.4959377136        0.2313699933        0.0107633261
 C          2.9065287155        0.3648384538        0.1907286450
 C          3.7942831109       -0.6495128064        0.2283721082
 C          0.6781798252        1.3826632288        0.0036891401
 C         -0.6833230938        1.2849507119       -0.1660124298
 H         -3.1389391340       -1.1928912364        1.2238751677
 H         -4.4844313718       -0.3732941041        0.6955256250
 H         -3.2611660647        0.4381858943        1.4755885872
 H         -3.1700048064        0.8601242082       -0.9405411840
 H         -3.0212478721       -0.8612882659       -1.1991579603
 H         -0.9682395028       -2.0622279560       -0.4632944795
 H          1.4470113860       -1.9192442105       -0.1623827427
 H          3.2821809372        1.3688421823        0.3060324817
 H          3.4936912903       -1.6711452079        0.1238553768
 H          4.8418523664       -0.4685921117        0.3678526483
 H          1.1334216270        2.3492420340        0.1357782895
 H         -1.2893506011        2.1747177582       -0.1643042025
