  22
  -27.833429039999999        8.1728965503994819E-002 !mtd6
 N         -3.4861651592       -0.2189992485        0.8094494556
 C         -2.7791199196       -0.1229251966       -0.4990081675
 C         -1.2969704450        0.0009908986       -0.3412613979
 C         -0.6984039742        1.2535288038       -0.1958028988
 C          0.6635319146        1.3727800488       -0.0270852477
 C          1.4968965775        0.2328583048        0.0100115492
 C          2.9080091887        0.3902553302        0.1834669562
 C          3.8139526063       -0.6084813840        0.2321695915
 C          0.8773249075       -1.0293703141       -0.1277142972
 C         -0.4865547165       -1.1349983843       -0.2956755655
 H         -4.5068537093       -0.3066086309        0.6899830423
 H         -3.3091264710        0.6158749790        1.3870157909
 H         -3.1622220384       -1.0376145890        1.3451311396
 H         -3.1614318088        0.7363938592       -1.0624942666
 H         -3.0114429031       -1.0038896303       -1.1089649787
 H         -1.3159591539        2.1365325917       -0.2205812077
 H          1.1070274878        2.3495462412        0.0773476394
 H          3.2687194621        1.4026188565        0.2819088042
 H          3.5323847222       -1.6380112654        0.1389091368
 H          4.8606467625       -0.4073194527        0.3650353533
 H          1.4761490720       -1.9235035435       -0.1020592271
 H         -0.9409130147       -2.1067771615       -0.3974938161
  22
  -27.833425580000000        8.1430273958415900E-002 !mtd13
 N         -3.4838209154       -0.2495440626        0.8075928961
 C         -2.7797949042       -0.1096136678       -0.4985340983
 C         -1.2974635766        0.0110303617       -0.3401822273
 C         -0.6941208525        1.2623083562       -0.2026464198
 C          0.6682751738        1.3773381304       -0.0347211887
 C          1.4972424184        0.2344620881        0.0094935682
 C          2.9092502007        0.3876450522        0.1795659870
 C          3.8112611876       -0.6143313167        0.2344602715
 C          0.8727206703       -1.0262664440       -0.1192064679
 C         -0.4915266276       -1.1276825853       -0.2866382667
 H         -3.1581636550       -1.0850041497        1.3151890451
 H         -4.5048327044       -0.3339713729        0.6875317356
 H         -3.3059874408        0.5659263628        1.4120505851
 H         -3.1651768764        0.7667943251       -1.0327059009
 H         -3.0119589973       -0.9706147399       -1.1365081622
 H         -1.3081269328        2.1476176969       -0.2328489698
 H          1.1155770174        2.3530675069        0.0630434005
 H          3.2741301396        1.3992859866        0.2692643338
 H          3.5253535148       -1.6434273715        0.1502454461
 H          4.8591399253       -0.4166961255        0.3635081405
 H          1.4678905052       -1.9226395540       -0.0871424027
 H         -0.9498091194       -2.0982933891       -0.3817699408
  22
  -27.833425380000001        8.1413041962897142E-002 !mtd1
 N         -3.4913573998       -0.0414175047        0.8207561152
 C         -2.7827577446        0.0961717918       -0.4830920453
 C         -1.2968146202        0.0040322624       -0.3400215925
 C         -0.5285596985        1.1485909956       -0.1190063226
 C          0.8385023193        1.0688934975        0.0348304362
 C          1.5046714001       -0.1754302001       -0.0201452114
 C          2.9213894215       -0.3049706715        0.1290617817
 C          3.7901508769        0.7075946057        0.3304430692
 C          0.7137176807       -1.3267730980       -0.2324855674
 C         -0.6523364539       -1.2333874808       -0.3850986153
 H         -3.2811378910       -0.9487306460        1.2615346987
 H         -4.5149594543        0.0241184165        0.7113424399
 H         -3.1990606298        0.6953153446        1.4793524408
 H         -3.0487013491        1.0528269868       -0.9478925534
 H         -3.1333589647       -0.6772561174       -1.1767096703
 H         -1.0186998586        2.1073979175       -0.0726697540
 H          1.4039187899        1.9700605309        0.1984061547
 H          3.3195608849       -1.3063736078        0.0718744962
 H          3.4702503226        1.7280502178        0.3952361619
 H          4.8442217824        0.5275623568        0.4318112776
 H          1.1932785157       -2.2910913464       -0.2767344509
 H         -1.2369691357       -2.1242352529       -0.5456129671
  22
  -27.833425370000000        8.1412180458773714E-002 !mtd13
 N         -3.4913791446       -0.0350242367        0.8212445547
 C         -2.7827472020        0.0933708266       -0.4835605830
 C         -1.2968157095        0.0018632750       -0.3399261233
 C         -0.5295625264        1.1466791800       -0.1169173665
 C          0.8375571541        1.0678985640        0.0368903221
 C          1.5048091484       -0.1757331470       -0.0203723490
 C          2.9217302728       -0.3041818535        0.1278689685
 C          3.7894851261        0.7087504134        0.3317588748
 C          0.7148567034       -1.3274008966       -0.2346769645
 C         -0.6512854216       -1.2349583228       -0.3871102578
 H         -3.1993740073        0.7064576000        1.4744130447
 H         -3.2808746887       -0.9391659248        1.2686666390
 H         -4.5149922993        0.0293507601        0.7112684926
 H         -3.0483636141        1.0468689269       -0.9550110047
 H         -3.1336604999       -0.6847081698       -1.1718022195
 H         -1.0205158563        2.1050001622       -0.0691957554
 H          1.4021507337        1.9693133856        0.2019394727
 H          3.3210201945       -1.3049619865        0.0675718868
 H          3.4684717078        1.7286274585        0.4000155031
 H          4.8438402841        0.5297308399        0.4319820413
 H          1.1952691299       -2.2912076912       -0.2808455864
 H         -1.2350929019       -2.1260045008       -0.5495192917
  22
  -27.833424930000000        8.1374283304214853E-002 !gc
 N         -3.4882857567       -0.2147290847        0.8072148159
 C         -2.7785911575       -0.1247643683       -0.5002058450
 C         -1.2967188815       -0.0004388404       -0.3402863806
 C         -0.6988119355        1.2523034583       -0.1937381428
 C          0.6630215867        1.3721191029       -0.0246834973
 C          1.4969979236        0.2325953735        0.0113825763
 C          2.9083453146        0.3906925769        0.1823610557
 C          3.8149640256       -0.6075282991        0.2292154843
 C          0.8779635105       -1.0298877923       -0.1264575133
 C         -0.4858167147       -1.1360892410       -0.2946887523
 H         -3.3111302486        0.6218222767        1.3820876917
 H         -3.1666912155       -1.0319439944        1.3463601611
 H         -4.5090035240       -0.3010165877        0.6859608023
 H         -3.1595656664        0.7320161591       -1.0683493868
 H         -3.0100627070       -1.0083229733       -1.1067347715
 H         -1.3167902013        2.1350212124       -0.2180265345
 H          1.1059466538        2.3490791625        0.0803552824
 H          3.2687083101        1.4032756419        0.2795564294
 H          3.5335393503       -1.6371627650        0.1369338718
 H          4.8619229062       -0.4058786068        0.3594863565
 H          1.4772086169       -1.9237561089       -0.1011269354
 H         -0.9396610466       -2.1080682283       -0.3969766969
  22
  -27.833424489999999        8.1336403790681147E-002 !gc
 N         -3.4697190181        0.1253896231       -0.8988348989
 C         -2.7939932964        0.0096554969        0.4244932233
 C         -1.3047578948       -0.0573730565        0.3032895737
 C         -0.5369001900        1.1084196092        0.2891013356
 C          0.8338250155        1.0558069090        0.1578237480
 C          1.5044434975       -0.1804856147        0.0274738737
 C          2.9251042573       -0.2830576541       -0.1042246517
 C          3.7936023083        0.7494851286       -0.1172386559
 C          0.7140638454       -1.3516279443        0.0308111943
 C         -0.6557121241       -1.2853059479        0.1628326235
 H         -4.4959139985        0.1674058714       -0.8045567887
 H         -3.2432847269       -0.6798486398       -1.5007223748
 H         -3.1659477223        0.9755637732       -1.3957101904
 H         -3.1602386797       -0.8808120948        0.9488396862
 H         -3.0732170242        0.8609098835        1.0566266537
 H         -1.0304272352        2.0616321209        0.3865856724
 H          1.3986268852        1.9720769820        0.1559679844
 H          3.3267663287       -1.2802305628       -0.1987948215
 H          3.4703162190        1.7667739244       -0.0252288922
 H          4.8508357227        0.5891784825       -0.2188137970
 H          1.1969922731       -2.3100037936       -0.0699428183
 H         -1.2397705527       -2.1908735827        0.1620743420
  22
  -27.833424430000001        8.1331239769028410E-002 !md5
 N         -3.4905312598       -0.0267158676        0.8227319536
 C         -2.7829379915        0.0896399244       -0.4837535349
 C         -1.2969137361       -0.0009082283       -0.3404974077
 C         -0.5309696885        1.1442153792       -0.1147406339
 C          0.8362162985        1.0666609887        0.0390697879
 C          1.5049068437       -0.1760644657       -0.0210418436
 C          2.9219237202       -0.3032807302        0.1273746281
 C          3.7884580560        0.7101612989        0.3338901714
 C          0.7162848620       -1.3281198649       -0.2381597474
 C         -0.6499571586       -1.2369036815       -0.3904343105
 H         -4.5140771128        0.0366875973        0.7128398013
 H         -3.1979896727        0.7206925153        1.4690715598
 H         -3.2797566965       -0.9267894152        1.2781500623
 H         -3.0485366748        1.0389190799       -0.9636550620
 H         -3.1347090300       -0.6945399296       -1.1645796758
 H         -1.0230588437        2.1018419455       -0.0648543542
 H          1.3997866873        1.9682956697        0.2063852759
 H          3.3223097420       -1.3034867282        0.0648749625
 H          3.4662392929        1.7295036830        0.4043821464
 H          4.8429759958        0.5320293850        0.4339777956
 H          1.1977925375       -2.2912775736       -0.2864473436
 H         -1.2327694542       -2.1282922528       -0.5545501135
  22
  -27.833424380000000        8.1326936667898350E-002 !md7
 N         -3.4666475610       -0.2104029600       -0.8978966972
 C         -2.7905373838       -0.1269687314        0.4276363665
 C         -1.3050486487       -0.0020870559        0.3062243997
 C         -0.7036943403        1.2512969857        0.1807029158
 C          0.6620565767        1.3718328392        0.0476241012
 C          1.4968250174        0.2324794929        0.0282843114
 C          2.9121479501        0.3914324753       -0.1048788362
 C          3.8198412485       -0.6065399550       -0.1322038530
 C          0.8745536357       -1.0306067378        0.1442829064
 C         -0.4931285475       -1.1375313703        0.2765437093
 H         -3.2750792987        0.6290024273       -1.4639190944
 H         -4.4900819294       -0.2974811482       -0.8029747886
 H         -3.1312745735       -1.0249200569       -1.4327015924
 H         -3.0374609297       -1.0133865379        1.0236664599
 H         -3.1858338594        0.7271307358        0.9902041934
 H         -1.3222206035        2.1338905263        0.1927899303
 H          1.1074891089        2.3492318071       -0.0416087241
 H          3.2747715742        1.4044356764       -0.1880966085
 H          3.5363596235       -1.6365474296       -0.0514315191
 H          4.8698100204       -0.4042794942       -0.2342600737
 H          1.4743633951       -1.9243533423        0.1305551281
 H         -0.9494236131       -2.1099228456        0.3628059959
  22
  -27.833423419999999        8.1244361262645559E-002 !mtd3
 N         -3.4729412470        0.0852484527       -0.8998865094
 C         -2.7934018728        0.0289867803        0.4253336326
 C         -1.3044615397       -0.0434668634        0.3034731275
 C         -0.5326334995        1.1195781133        0.2768739306
 C          0.8378888394        1.0609083303        0.1460044511
 C          1.5042716552       -0.1789396152        0.0283465692
 C          2.9245925293       -0.2878808899       -0.1019428708
 C          3.7970660574        0.7412007261       -0.1215094683
 C          0.7098704749       -1.3472683659        0.0436103343
 C         -0.6596095506       -1.2748852492        0.1755283652
 H         -3.2522235227       -0.7482836233       -1.4639860777
 H         -3.1667831471        0.9097933691       -1.4368692736
 H         -4.4987657034        0.1363789012       -0.8045019495
 H         -3.1578423810       -0.8372409616        0.9900250713
 H         -3.0712982468        0.9075434609        1.0195388021
 H         -1.0227165273        2.0755149497        0.3646122838
 H          1.4058853984        1.9751322206        0.1343702389
 H          3.3225185031       -1.2872266601       -0.1890750248
 H          3.4777091975        1.7602861508       -0.0358740600
 H          4.8537306600        0.5761270296       -0.2213659144
 H          1.1895549348       -2.3082677337       -0.0471162620
 H         -1.2468198396       -2.1783558353        0.1850240042
  22
  -27.833423190000001        8.1224590025231927E-002 !gc
 N         -3.4689262078        0.1152203102       -0.9016271238
 C         -2.7942047252        0.0151394647        0.4233612550
 C         -1.3048978002       -0.0539806440        0.3040301663
 C         -0.5360186034        1.1110978892        0.2863691017
 C          0.8346915647        1.0569483480        0.1557173332
 C          1.5043267113       -0.1802930926        0.0294694608
 C          2.9248214175       -0.2843266534       -0.1028819602
 C          3.7936598995        0.7478293326       -0.1227287034
 C          0.7130241129       -1.3507949003        0.0370748990
 C         -0.6567582311       -1.2829015921        0.1684108495
 H         -3.1619837893        0.9575296877       -1.4095726364
 H         -4.4951752387        0.1618297201       -0.8084920573
 H         -3.2449173630       -0.6987795959       -1.4925617141
 H         -3.1613285083       -0.8687977856        0.9580496269
 H         -3.0733937255        0.8740085341        1.0451217039
 H         -1.0287408619        2.0650361617        0.3808009210
 H          1.4003311043        1.9726860493        0.1513405222
 H          3.3260096443       -1.2821429558       -0.1925342423
 H          3.4707917458        1.7657634085       -0.0365815826
 H          4.8507114169        0.5865354401       -0.2246122037
 H          1.1952435844       -2.3098981410       -0.0600581634
 H         -1.2415409900       -2.1879932079        0.1710769718
  22
  -27.833422360000000        8.1153281647852307E-002 !md2
 N         -3.4698100992       -0.2007860748       -0.8952153879
 C         -2.7898251025       -0.1314274809        0.4291460611
 C         -1.3046254068       -0.0054475998        0.3051569024
 C         -0.7042821331        1.2486915461        0.1825909897
 C          0.6613094817        1.3706838138        0.0491590839
 C          1.4970078962        0.2320654624        0.0269312355
 C          2.9123526136        0.3925050811       -0.1042095235
 C          3.8212980947       -0.6043887406       -0.1291937972
 C          0.8756656098       -1.0318398461        0.1389397957
 C         -0.4918991708       -1.1402297204        0.2713192645
 H         -3.1359992658       -1.0094968149       -1.4394890489
 H         -3.2799027033        0.6447028795       -1.4529321714
 H         -4.4929719435       -0.2889836550       -0.7983229767
 H         -3.0352711580       -1.0239863854        1.0165615553
 H         -3.1834103786        0.7168248436        1.0016787468
 H         -1.3234668287        2.1307664360        0.1976491294
 H          1.1059671139        2.3486831008       -0.0372242462
 H          3.2739904994        1.4059004592       -0.1871931665
 H          3.5390230319       -1.6347008182       -0.0477224415
 H          4.8712097358       -0.4008768602       -0.2293520421
 H          1.4760775325       -1.9251234122        0.1217622172
 H         -0.9473822576       -2.1132648985        0.3545000986
  22
  -27.833422209999998        8.1140401272373458E-002 !gc
 N         -3.4694607564       -0.2094974524       -0.8943357015
 C         -2.7899407001       -0.1273877804        0.4295468675
 C         -1.3047032215       -0.0024342080        0.3049627407
 C         -0.7034156676        1.2510316269        0.1799606282
 C          0.6622755217        1.3717143598        0.0463236913
 C          1.4971123106        0.2324161484        0.0263125703
 C          2.9126495333        0.3916013654       -0.1043243648
 C          3.8206756090       -0.6061677585       -0.1278134939
 C          0.8747801219       -1.0308198848        0.1403599855
 C         -0.4928585082       -1.1378827572        0.2730789902
 H         -4.4926405778       -0.2953742577       -0.7969773046
 H         -3.1364419302       -1.0241660155       -1.4303991741
 H         -3.2781345798        0.6300700772       -1.4604512096
 H         -3.0354277889       -1.0143581524        1.0253687498
 H         -3.1838838314        0.7262107559        0.9938406368
 H         -1.3218659567        2.1336482667        0.1934739963
 H          1.1077387010        2.3491984736       -0.0417589374
 H          3.2752246804        1.4046095501       -0.1879022293
 H          3.5373647730       -1.6361469075       -0.0457281446
 H          4.8708424435       -0.4036329117       -0.2272567305
 H          1.4743771982       -1.9246740817        0.1245046012
 H         -0.9490574235       -2.1104291014        0.3580461446
  22
  -27.829934170000001        2.0241605437450573E-003 !mtd9
 N         -3.6049186173       -0.7632939994       -0.1665451831
 C         -2.7744502407        0.4624146478        0.0212801805
 C         -1.2937042092        0.2281084371        0.0169355955
 C         -0.4226827430        1.3093937181       -0.1407361788
 C          0.9442192818        1.1361636227       -0.1283885644
 C          1.5125118368       -0.1442928991        0.0485691019
 C          2.9245872757       -0.3718656028        0.0681318458
 C          3.8785391695        0.5716555294       -0.0747289629
 C          0.6238806871       -1.2297786810        0.2134580098
 C         -0.7411340562       -1.0409439686        0.1989610354
 H         -4.6080537816       -0.5330476885       -0.2318893197
 H         -3.4968732249       -1.4187226425        0.6214127765
 H         -3.3458761357       -1.2573032954       -1.0332262924
 H         -3.0556957683        0.9482940859        0.9631558478
 H         -3.0199762188        1.1794209027       -0.7714611939
 H         -0.8350464055        2.2968843281       -0.2710214049
 H          1.5850852416        1.9919073578       -0.2534299543
 H          3.2434665156       -1.3929390226        0.2108631154
 H          3.6394982737        1.6060119196       -0.2192143527
 H          4.9223228464        0.3195489710       -0.0482094767
 H          1.0269613402       -2.2194838659        0.3543769399
 H         -1.3930086958       -1.8868345525        0.3299037176
  22
  -27.829882890000000        1.9172480236547024E-003 !gc
 N         -3.4731461935       -1.0372309062       -0.1059136462
 C         -2.8110279975        0.2909379797        0.0510076567
 C         -1.3128382745        0.2568854882        0.0093052190
 C         -0.5999330800        1.4390681773       -0.2064603611
 C          0.7773139249        1.4487570540       -0.2251048712
 C          1.5179067776        0.2637307180       -0.0218697901
 C          2.9475453337        0.3068038252       -0.0421074744
 C          3.7719501744       -0.7452630750        0.1423756468
 C          0.7887139363       -0.9255466933        0.1990954049
 C         -0.5897571893       -0.9196917046        0.2147116710
 H         -3.2619096108       -1.6622236058        0.6856556802
 H         -3.1679667086       -1.5028904358       -0.9732538458
 H         -4.4993895680       -0.9443191470       -0.1511282702
 H         -3.1312357145        0.7449378858        0.9963176925
 H         -3.1706940415        0.9598679105       -0.7401408036
 H         -1.1432640224        2.3579224706       -0.3569204849
 H          1.3043825560        2.3736315111       -0.3941895341
 H          3.3953638456        1.2724658443       -0.2199686766
 H          3.4014510577       -1.7337850623        0.3251346861
 H          4.8395429053       -0.6303228013        0.1137998364
 H          1.3143083281       -1.8513595819        0.3583284453
 H         -1.1197547051       -1.8400928626        0.3868573530
  22
  -27.829878910000001        1.9091902921661446E-003 !mtd6
 N         -3.6352659175        0.5749081104        0.2604013687
 C         -2.7536344725       -0.5157587727       -0.2498214886
 C         -1.2833841799       -0.2510659374       -0.1236022241
 C         -0.7760008802        1.0236839994        0.1338382621
 C          0.5805761932        1.2475219970        0.2241778206
 C          1.5066751544        0.1949609600        0.0547348169
 C          2.9092564682        0.4591440910        0.1503470741
 C          3.8959260316       -0.4481633464       -0.0044050328
 C          0.9843761969       -1.0902729126       -0.2100131032
 C         -0.3750735683       -1.2989092317       -0.2967542856
 H         -3.4236878042        0.7929649631        1.2451590665
 H         -4.6307380850        0.3094443646        0.2114380046
 H         -3.5262365006        1.4387125777       -0.2910626717
 H         -2.9915401095       -0.7087588448       -1.3026811466
 H         -2.9919314306       -1.4422069559        0.2865653990
 H         -1.4572888609        1.8464252840        0.2643433145
 H          0.9478331516        2.2406831588        0.4251572506
 H          3.1912346168        1.4788174156        0.3634046182
 H          3.6940491327       -1.4778460453       -0.2210137712
 H          4.9296662836       -0.1694547476        0.0821264311
 H          1.6548898948       -1.9211850532       -0.3472295746
 H         -0.7520396356       -2.2871775616       -0.5037348934
  22
  -27.829920609999999        1.9953230084992402E-003 !mtd4
 N         -3.4721306491       -1.0364316136       -0.1253763073
 C         -2.8111971675        0.2892565650        0.0564894610
 C         -1.3129830796        0.2568642983        0.0154190214
 C         -0.6005460281        1.4390205581       -0.2020492729
 C          0.7766857261        1.4489286602       -0.2219564298
 C          1.5177585282        0.2642306009       -0.0186336973
 C          2.9473207906        0.3067079082       -0.0444529189
 C          3.7719171157       -0.7467483427        0.1312333038
 C          0.7890254027       -0.9244287182        0.2071700373
 C         -0.5894410028       -0.9187878208        0.2243337751
 H         -3.1618883728       -1.4879589565       -0.9982434707
 H         -4.4981530938       -0.9431150944       -0.1746939179
 H         -3.2650185180       -1.6743351763        0.6570994478
 H         -3.1328435723        0.7263226543        1.0092840893
 H         -3.1704931244        0.9716902196       -0.7232568750
 H         -1.1441344544        2.3575771797       -0.3533202891
 H          1.3033984993        2.3737001382       -0.3927766289
 H          3.3949266315        1.2727443867       -0.2207666424
 H          3.4015033876       -1.7360796593        0.3098409068
 H          4.8394550777       -0.6324698169        0.0980529902
 H          1.3148674135       -1.8493160716        0.3708674697
 H         -1.1190095001       -1.8384317012        0.4018854182
  22
  -27.829825570000001        1.8044125983171315E-003 !mtd7
 N         -3.6072899495       -0.7682465818       -0.1151966131
 C         -2.7738672400        0.4650936480       -0.0082276517
 C         -1.2932821752        0.2293578928        0.0003752811
 C         -0.4209702530        1.3103087085       -0.1522919888
 C          0.9457681460        1.1366725931       -0.1321399295
 C          1.5126258873       -0.1440090173        0.0476217852
 C          2.9244891755       -0.3719058078        0.0754126906
 C          3.8795297646        0.5712591407       -0.0627726457
 C          0.6226929698       -1.2294770247        0.2059739743
 C         -0.7421220607       -1.0401561097        0.1833489603
 H         -3.3625598854       -1.3100825244       -0.9569636189
 H         -4.6113507929       -0.5407148188       -0.1778281855
 H         -3.4867775104       -1.3783320260        0.7066594817
 H         -3.0524747254        1.0099012685        0.9016756102
 H         -3.0196484547        1.1311220848       -0.8441605310
 H         -0.8325027212        2.2976931740       -0.2858935118
 H          1.5875848825        1.9922631226       -0.2536323396
 H          3.2422802990       -1.3930130935        0.2201673255
 H          3.6416647505        1.6055124445       -0.2098622063
 H          4.9230809062        0.3188939020       -0.0303133377
 H          1.0245604768       -2.2195241599        0.3478772797
 H         -1.3950080769       -1.8861049966        0.3086242534
  22
  -27.829788270000002        1.7345784939923256E-003 !mtd3
 N         -3.6321788746        0.6483141053       -0.0689172788
 C         -2.7559673073       -0.5595132155       -0.0508598597
 C         -1.2844005296       -0.2738690104       -0.0202277936
 C         -0.7780495652        1.0046141526        0.2200507541
 C          0.5790811039        1.2396141946        0.2587543899
 C          1.5066694097        0.1936907365        0.0590229074
 C          2.9096425996        0.4689301924        0.1041730711
 C          3.8972446868       -0.4328539793       -0.0748935434
 C          0.9852845597       -1.0970908036       -0.1795771412
 C         -0.3747456454       -1.3166371609       -0.2151105286
 H         -3.5281303347        1.2029958991        0.7933198533
 H         -4.6280472052        0.3907074973       -0.1444999370
 H         -3.4114343295        1.2560115311       -0.8716212438
 H         -2.9778646526       -1.1708130104       -0.9338332603
 H         -3.0156215443       -1.1789269828        0.8160502505
 H         -1.4604400297        1.8218134789        0.3767868339
 H          0.9456502976        2.2359739463        0.4446014640
 H          3.1912465200        1.4924080993        0.2985558400
 H          3.6960113274       -1.4661443094       -0.2742616644
 H          4.9312725919       -0.1463402010       -0.0248944065
 H          1.6570555152       -1.9237887033       -0.3348656391
 H         -0.7512253469       -2.3103633539       -0.3951625537
  22
  -27.829766429999999        1.6949503792058457E-003 !mtd7
 N         -3.4778529971       -0.9857592210        0.2882201075
 C         -2.8083131047        0.2579492136       -0.1935803016
 C         -1.3111368161        0.2401011603       -0.1169648310
 C         -0.5975495932        1.4313060377       -0.2718970528
 C          0.7788946408        1.4502951199       -0.2241577263
 C          1.5181292769        0.2644623354       -0.0206649630
 C          2.9468739217        0.3165739265        0.0250428583
 C          3.7699119736       -0.7361872268        0.2118107136
 C          0.7885046749       -0.9357095575        0.1283880430
 C         -0.5891823705       -0.9388590355        0.0786496535
 H         -3.2438966733       -1.7954112431       -0.3047597290
 H         -4.5047474886       -0.8898693827        0.2769883201
 H         -3.2006915336       -1.2051048252        1.2564204654
 H         -3.1806097631        1.1080665349        0.3906527316
 H         -3.1095086557        0.4511520845       -1.2301644347
 H         -1.1399527602        2.3488086978       -0.4335649092
 H          1.3064256345        2.3824170802       -0.3451687899
 H          3.3952511403        1.2899759209       -0.1018834587
 H          3.3988102099       -1.7323961348        0.3448471378
 H          4.8369053440       -0.6145843596        0.2345353639
 H          1.3131351310       -1.8630609493        0.2817060082
 H         -1.1194637984       -1.8679279939        0.1936295180
  22
  -27.829738920000000        1.6463200517913710E-003 !mtd3
 N         -3.5109863071        0.9046700662        0.0832715621
 C         -2.7979256299       -0.3992660212       -0.0521757694
 C         -1.3016588559       -0.3045252060       -0.0573259524
 C         -0.6269243505        0.8549561938        0.3292996773
 C          0.7501287686        0.9147985133        0.3350234820
 C          1.5274847029       -0.1999842637       -0.0484862135
 C          2.9578143456       -0.1843441101       -0.0579973232
 C          3.7383404709        0.8612084175        0.2857721752
 C          0.8358388138       -1.3697967451       -0.4334044141
 C         -0.5410439287       -1.4145842614       -0.4337443370
 H         -3.2301730636        1.5602391785       -0.6606607378
 H         -3.3179978767        1.3482953685        0.9932964472
 H         -4.5332226018        0.7843402438        0.0167050807
 H         -3.1232325221       -0.8849350621       -0.9800267148
 H         -3.1093650628       -1.0661648943        0.7607037394
 H         -1.1941298036        1.7193415924        0.6279914595
 H          1.2372134061        1.8256453843        0.6377158601
 H          3.4449564579       -1.0954875710       -0.3697547874
 H          3.3274206977        1.7976035324        0.6053319124
 H          4.8098362017        0.7938681278        0.2518494182
 H          1.4003263363       -2.2393019303       -0.7288406022
 H         -1.0467673338       -2.3203419854       -0.7261260011
  22
  -27.829690090000000        1.5634124049973047E-003 !mtd3
 N         -3.6122038383       -0.7550286475        0.0954711935
 C         -2.7719454016        0.4571469531       -0.1312478925
 C         -1.2921576710        0.2250154390       -0.0648133384
 C         -0.4186451092        1.3087634409       -0.1871549052
 C          0.9476091345        1.1373243317       -0.1367755110
 C          1.5128369301       -0.1445112762        0.0400976623
 C          2.9241549276       -0.3702622325        0.0978639234
 C          3.8800994015        0.5765870806       -0.0041784276
 C          0.6217617430       -1.2337045514        0.1620786489
 C         -0.7425177465       -1.0464270263        0.1093151877
 H         -3.4271762427       -1.1701266139        1.0204328496
 H         -3.4362317182       -1.4739304435       -0.6218460527
 H         -4.6178375566       -0.5289554893        0.0580949298
 H         -3.0427616557        1.2204650412        0.6080540463
 H         -3.0194237006        0.8855659134       -1.1099703401
 H         -0.8290686730        2.2961563114       -0.3241964475
 H          1.5903902420        1.9951256773       -0.2350679078
 H          3.2408875557       -1.3926465346        0.2359398455
 H          3.6433668401        1.6122838448       -0.1428747824
 H          4.9231037168        0.3255624175        0.0497227223
 H          1.0226694988       -2.2249455097        0.2982489630
 H         -1.3962387348       -1.8955174139        0.2049369476
  22
  -27.829687140000001        1.5585395496118992E-003 !mtd8
 N         -3.4773366630       -1.0007042464        0.2471278743
 C         -2.8089852133        0.2660017292       -0.1720204634
 C         -1.3114212666        0.2447273194       -0.1032026115
 C         -0.5966258076        1.4340739339       -0.2664090177
 C          0.7800650371        1.4509802586       -0.2253929297
 C          1.5183723014        0.2649308286       -0.0198377955
 C          2.9475061647        0.3144098872        0.0158283482
 C          3.7697283131       -0.7389541495        0.2027667946
 C          0.7874271149       -0.9329212343        0.1408943410
 C         -0.5904852591       -0.9339987632        0.0976581560
 H         -4.5043486716       -0.9083530093        0.2306653100
 H         -3.2087017307       -1.2629239211        1.2070388242
 H         -3.2340720392       -1.7813251359       -0.3803228633
 H         -3.1787895046        1.0855101434        0.4558901869
 H         -3.1140220147        0.5113885481       -1.1964012171
 H         -1.1384458970        2.3517191232       -0.4292496770
 H          1.3084765481        2.3816324640       -0.3536617818
 H          3.3968571166        1.2860996706       -0.1204695605
 H          3.3976146433       -1.7335479386        0.3447403976
 H          4.8371026569       -0.6193119614        0.2161254486
 H          1.3111296748       -1.8600723981        0.2985387257
 H         -1.1217506505       -1.8612683073        0.2219598702
  22
  -27.829737930000000        1.6445962487754348E-003 !mtd3
 N         -3.6359576715        0.6062037564        0.1850043825
 C         -2.7540713106       -0.5345724448       -0.1995855088
 C         -1.2833813329       -0.2605346501       -0.0999063453
 C         -0.7778895466        1.0148955868        0.1578971928
 C          0.5787378450        1.2434713338        0.2343169078
 C          1.5067332132        0.1946524720        0.0525536266
 C          2.9091436707        0.4628159205        0.1388249681
 C          3.8972069512       -0.4432636888       -0.0141593783
 C          0.9863603674       -1.0915656971       -0.2113974173
 C         -0.3731951852       -1.3046154911       -0.2850363119
 H         -3.5030763346        1.4130937130       -0.4421132588
 H         -3.4475446211        0.9136495132        1.1505840553
 H         -4.6326389406        0.3453860745        0.1359635517
 H         -2.9894005541       -0.8393301357       -1.2263161077
 H         -2.9952642175       -1.3976165304        0.4326853794
 H         -1.4605970590        1.8343852674        0.3005007602
 H          0.9446849670        2.2370760961        0.4355107321
 H          3.1899091243        1.4841943650        0.3452284699
 H          3.6965477725       -1.4753463240       -0.2202184311
 H          4.9307592621       -0.1618898933        0.0655878178
 H          1.6584176314       -1.9194865683       -0.3587636282
 H         -0.7490287399       -2.2936337500       -0.4905634942
  22
  -27.829647659999999        1.4947689767144119E-003 !gc
 N         -3.5135543329        0.8252568925        0.3568845444
 C         -2.7966810495       -0.3517952229       -0.2150983311
 C         -1.3008680479       -0.2795137167       -0.1430159265
 C         -0.6274183030        0.8781232647        0.2515001535
 C          0.7493449183        0.9256939711        0.2990799954
 C          1.5277246019       -0.1987211131       -0.0528720802
 C          2.9577057416       -0.1966611347       -0.0175340078
 C          3.7373214585        0.8433580260        0.3445443544
 C          0.8374510413       -1.3637735325       -0.4543355453
 C         -0.5391143187       -1.3960584330       -0.4970309072
 H         -3.2602390108        0.9711873159        1.3451339385
 H         -4.5364478127        0.6987104921        0.3185437418
 H         -3.2957294440        1.6882367450       -0.1628219630
 H         -3.0955322872       -0.4795761063       -1.2623914930
 H         -3.1310068833       -1.2573367761        0.3055248300
 H         -1.1954175982        1.7503967054        0.5244810845
 H          1.2353335016        1.8347117207        0.6090130473
 H          3.4454230073       -1.1143663686       -0.3084591251
 H          3.3259334950        1.7857180539        0.6455106147
 H          4.8086240049        0.7652501318        0.3446949111
 H          1.4028334348       -2.2385602962       -0.7319338905
 H         -1.0438787444       -2.2954502944       -0.8100467888
  22
  -27.829619130000001        1.4503158574728891E-003 !mtd5
 N         -3.4733806625       -1.0435573036        0.0326416310
 C         -2.8115296875        0.2919614118       -0.0393355229
 C         -1.3125598488        0.2581569827       -0.0350863984
 C         -0.5962948788        1.4409857477       -0.2347756253
 C          0.7810837730        1.4510645771       -0.2297377027
 C          1.5185300729        0.2651396720       -0.0203621667
 C          2.9483005122        0.3076713129       -0.0211678121
 C          3.7697111077       -0.7465212626        0.1646690405
 C          0.7859951388       -0.9250380064        0.1842281684
 C         -0.5925697617       -0.9193108645        0.1762833717
 H         -3.2463462878       -1.5289906144        0.9128865948
 H         -3.1838728569       -1.6457855843       -0.7521219776
 H         -4.5003742249       -0.9581660894       -0.0102809420
 H         -3.1546023337        0.9075600060        0.8007635806
 H         -3.1497902794        0.8067499056       -0.9467433935
 H         -1.1377406751        2.3594584205       -0.3941717410
 H          1.3106656441        2.3765959217       -0.3868792094
 H          3.3988464585        1.2743314111       -0.1865500251
 H          3.3964389988       -1.7364708779        0.3338219744
 H          4.8376026123       -0.6322375336        0.1491597987
 H          1.3089020518       -1.8512316431        0.3499529020
 H         -1.1250843400       -1.8404966936        0.3353637172
  22
  -27.829616460000000        1.4462239470490969E-003 !mtd5
 N         -3.5135783497        0.8370477800        0.3315688600
 C         -2.7968187694       -0.3580471534       -0.2021494785
 C         -1.3008603046       -0.2830579352       -0.1351053860
 C         -0.6277319796        0.8744356783        0.2603317064
 C          0.7490670723        0.9235140579        0.3044301824
 C          1.5278038266       -0.1994101299       -0.0514608961
 C          2.9579235273       -0.1949763551       -0.0215301609
 C          3.7371217280        0.8465712165        0.3370868607
 C          0.8378572074       -1.3650113082       -0.4519191407
 C         -0.5387878473       -1.3987104514       -0.4912751210
 H         -3.2881749109        1.6840359760       -0.2104879742
 H         -3.2677668890        1.0097944460        1.3175199326
 H         -4.5366222366        0.7130897192        0.2887850866
 H         -3.0971284036       -0.5197637842       -1.2443301725
 H         -3.1301994927       -1.2463938991        0.3478500620
 H         -1.1960686605        1.7454591485        0.5365396727
 H          1.2349312821        1.8324505454        0.6147777518
 H          3.4460821044       -1.1117775042       -0.3145540615
 H          3.3251909363        1.7884772240        0.6387211847
 H          4.8085463834        0.7703125702        0.3330155028
 H          1.4035299947       -2.2389804763       -0.7314807856
 H         -1.0433826889       -2.2987815121       -0.8025897961
