  22
        -27.83342904
 N         -3.4861651592       -0.2189992485        0.8094494556
 C         -2.7791199196       -0.1229251966       -0.4990081675
 C         -1.2969704450        0.0009908986       -0.3412613979
 C         -0.6984039742        1.2535288038       -0.1958028988
 C          0.6635319146        1.3727800488       -0.0270852477
 C          1.4968965775        0.2328583048        0.0100115492
 C          2.9080091887        0.3902553302        0.1834669562
 C          3.8139526063       -0.6084813840        0.2321695915
 C          0.8773249075       -1.0293703141       -0.1277142972
 C         -0.4865547165       -1.1349983843       -0.2956755655
 H         -4.5068537093       -0.3066086309        0.6899830423
 H         -3.3091264710        0.6158749790        1.3870157909
 H         -3.1622220384       -1.0376145890        1.3451311396
 H         -3.1614318088        0.7363938592       -1.0624942666
 H         -3.0114429031       -1.0038896303       -1.1089649787
 H         -1.3159591539        2.1365325917       -0.2205812077
 H          1.1070274878        2.3495462412        0.0773476394
 H          3.2687194621        1.4026188565        0.2819088042
 H          3.5323847222       -1.6380112654        0.1389091368
 H          4.8606467625       -0.4073194527        0.3650353533
 H          1.4761490720       -1.9235035435       -0.1020592271
 H         -0.9409130147       -2.1067771615       -0.3974938161
