13
 energy: -20.387151415334 gnorm: 0.000473035508 xtb: 6.5.1 (fef0646)
N            0.91888178363062       -0.27050024125315       -0.08836106522499
C            2.39311898957902       -0.23527390662764       -0.06965575217658
C            2.85459534991389        0.31494058570632        1.28241171093077
C            4.25759820817744        0.61134373300075        1.29546273568766
N            5.37965735237537        0.84197563920721        1.30849175337873
Cl           0.14028245902269        2.53762497834476        0.80071102330713
H            0.56100874108546       -0.51958927192201       -1.01358234595746
H            0.55547908078308        0.68828110985557        0.16057772967641
H            0.55309021972696       -0.92276855788473        0.61038830868265
H            2.73873857759435        0.43003891129877       -0.86120049065457
H            2.79737590952116       -1.23466562105923       -0.23655482656645
H            2.65057239690122       -0.38935640707532        2.09127088370005
H            2.31081093168880        1.24445904840900        1.48245033521638
