  27
        -35.31601348
 N         -3.3260293345       -1.1638242543       -1.1683113641
 C         -3.6869534273       -0.0158123168       -0.2878540745
 C         -2.7796095062        0.0921869167        0.9363864398
 C         -1.3407959420        0.3290794784        0.5827830790
 C         -0.4173486207       -0.7044213627        0.6362199261
 C          0.9319597751       -0.5011921006        0.2936625349
 C          1.8857727441       -1.5339867736        0.3523770491
 C          3.2013475369       -1.2969275636        0.0108683651
 C          3.6066611666       -0.0339573913       -0.3968956854
 C          2.7004625768        1.0037415671       -0.4657960035
 C          1.3505910140        0.7999505838       -0.1246656457
 C          0.3970526777        1.8311062846       -0.1769281701
 C         -0.9173815447        1.5932757185        0.1697114884
 H         -3.9406249563       -1.2210387221       -1.9945585203
 H         -3.4042664646       -2.0580483601       -0.6617086777
 H         -2.3528364593       -1.0806009014       -1.5076980438
 H         -4.7349487678       -0.1154440825        0.0209351375
 H         -3.6348125595        0.9121232092       -0.8688762027
 H         -2.8587187721       -0.8233973115        1.5307890124
 H         -3.1203634058        0.8976522833        1.5959457120
 H         -0.7337096774       -1.6816970979        0.9536992437
 H          1.5791171466       -2.5152206537        0.6719379545
 H          3.9211307609       -2.0979967334        0.0627806719
 H          4.6383576525        0.1373156326       -0.6598745170
 H          3.0215367394        1.9820786370       -0.7803090294
 H          0.7045691724        2.8148562703       -0.4876885212
 H         -1.6339449130        2.3964237074        0.1293153166
  27
        -35.31589286
 N         -3.3673564025       -1.1169839486       -1.1891638393
 C         -3.7008487162        0.0062529572       -0.2669890821
 C         -2.7719692890        0.0663726889        0.9444046182
 C         -1.3369423989        0.3072748857        0.5773757273
 C         -0.4052432309       -0.7184108594        0.6405393317
 C          0.9428499613       -0.5074162872        0.2974572153
 C          1.9058478029       -1.5308483619        0.3697524511
 C          3.2204046680       -1.2853931685        0.0301428738
 C          3.6156334919       -0.0232245161       -0.3897992179
 C          2.7001993041        1.0052830367       -0.4727944983
 C          1.3512337171        0.7929231497       -0.1332905574
 C          0.3892294784        1.8154718691       -0.1969661288
 C         -0.9231869286        1.5707050229        0.1524276233
 H         -3.9952189142       -1.1404287931       -2.0070614727
 H         -3.4487958246       -2.0260287355       -0.7102253441
 H         -2.3984706676       -1.0345083946       -1.5407855252
 H         -4.7444066994       -0.0928305330        0.0567281790
 H         -3.6494972660        0.9515583399       -0.8192884386
 H         -2.8481320324       -0.8687923817        1.5078730387
 H         -3.0964125251        0.8505951124        1.6369770523
 H         -0.7134466464       -1.6948624903        0.9684122878
 H          1.6072360622       -2.5113246863        0.6990780736
 H          3.9473822214       -2.0791260204        0.0934825307
 H          4.6466808776        0.1548240467       -0.6508355183
 H          3.0134314248        1.9832092118       -0.7963650268
 H          0.6890626389        2.7986402126       -0.5169497153
 H         -1.6453911035        2.3684512149        0.1066035078
  27
        -35.31580887
 N         -3.6064892846        0.3155958920        1.4169658048
 C         -3.5126966260       -0.7521603761        0.3802103200
 C         -2.7675925861       -0.2918911538       -0.8714519804
 C         -1.3361022801        0.0690990309       -0.6038623592
 C         -0.3741422486       -0.9221885439       -0.4822010253
 C          0.9713121833       -0.6106652013       -0.2138428375
 C          1.9633373355       -1.6016523578       -0.0965236715
 C          3.2736113375       -1.2578816166        0.1653664989
 C          3.6357558520        0.0730147047        0.3177872101
 C          2.6911285858        1.0723278141        0.2090131420
 C          1.3452531120        0.7600782151       -0.0577017536
 C          0.3531500181        1.7481300787       -0.1791224088
 C         -0.9563156209        1.4031063272       -0.4450939615
 H         -4.1122665675        1.1381016569        1.0568004918
 H         -2.6703977008        0.6299219543        1.7116962141
 H         -4.1069739322       -0.0111521936        2.2619047759
 H         -4.5239005022       -1.0890418798        0.1203427860
 H         -3.0084613394       -1.6258573061        0.8088234051
 H         -3.2817643104        0.5711805396       -1.3057816453
 H         -2.7998578544       -1.0682284538       -1.6435272760
 H         -0.6589475877       -1.9520823508       -0.6021309497
 H          1.6898613956       -2.6359603997       -0.2167494234
 H          4.0229414791       -2.0284304963        0.2507428822
 H          4.6637663635        0.3273616295        0.5212303813
 H          2.9786077694        2.1032417786        0.3260654461
 H          0.6274288684        2.7830478809       -0.0669873658
 H         -1.7017991293        2.1744543219       -0.5409031486
  27
        -35.31207321
 N         -4.8619649000       -0.7006039787       -0.4692957584
 C         -3.4159742743       -0.4073485715       -0.6969546092
 C         -2.6668460511       -0.0977748587        0.5952083365
 C         -1.2146644947        0.2137235777        0.3760541229
 C         -0.2569711215       -0.7861895618        0.4571491730
 C          1.1059760914       -0.5162775112        0.2355683722
 C          2.0938550776       -1.5144546244        0.3232953396
 C          3.4215406876       -1.2117525358        0.1015481401
 C          3.8056638800        0.0840472839       -0.2130667127
 C          2.8657773832        1.0891723559       -0.3082766636
 C          1.5026845373        0.8184411209       -0.0877062484
 C          0.5144379001        1.8140362682       -0.1738788812
 C         -0.8126823252        1.5106644786        0.0521989886
 H         -5.3553520427       -0.9089662182       -1.3504360492
 H         -5.3382854840        0.1001375429       -0.0290261686
 H         -4.9837265310       -1.5150430658        0.1559534160
 H         -3.3197060818        0.4359154258       -1.3902584265
 H         -2.9449348820       -1.2584140913       -1.2020282999
 H         -2.7587383129       -0.9419116342        1.2857916894
 H         -3.1447506968        0.7437088221        1.1060407788
 H         -0.5590468804       -1.7896793840        0.6977123747
 H          1.8032293326       -2.5215744653        0.5686674613
 H          4.1671751083       -1.9872097031        0.1734018856
 H          4.8468121853        0.3064843195       -0.3844664074
 H          3.1696980265        2.0926946055       -0.5527030314
 H          0.8047356646        2.8215796894       -0.4177531116
 H         -1.5571208048        2.2858970912       -0.0178362137
  27
        -35.30986418
 N         -4.4624942633        0.7570374497       -0.5087882762
 C         -3.6898363843        0.1206644813        0.6002224544
 C         -2.6409270993       -0.8880889397        0.1025581664
 C         -1.2421450614       -0.3450939766       -0.0103951268
 C         -0.1621520974       -1.1271540454        0.3756131792
 C          1.1622663061       -0.6669913447        0.2586606043
 C          2.2661997665       -1.4472395520        0.6492509299
 C          3.5515432542       -0.9631831196        0.5181519616
 C          3.7776643563        0.3032471512       -0.0021425385
 C          2.7204792806        1.0968687198       -0.3962930567
 C          1.3960076219        0.6366604037       -0.2778118127
 C          0.2908382291        1.4103617172       -0.6705708587
 C         -0.9929654271        0.9220193793       -0.5393653832
 H         -3.8519285736        1.2347722381       -1.1860734499
 H         -5.1356117473        1.4533236190       -0.1539881343
 H         -5.0034683555        0.0491888183       -1.0339004667
 H         -4.4039891466       -0.3714794970        1.2732419537
 H         -3.2042306928        0.8914765171        1.2099562080
 H         -2.9482204939       -1.2802034452       -0.8719592112
 H         -2.6198237420       -1.7580379567        0.7681442480
 H         -0.3366389300       -2.1114071803        0.7720121524
 H          2.0978437848       -2.4308339805        1.0533314557
 H          4.3872189409       -1.5730178066        0.8219448444
 H          4.7875709365        0.6685997586       -0.0995057994
 H          2.9021597509        2.0781545597       -0.8002422139
 H          0.4572441741        2.3926536489       -1.0783274041
 H         -1.8217078521        1.5326617646       -0.8480483555
  27
        -35.30974883
 N         -3.7001493554       -1.8498104838        0.0302512178
 C         -3.4711404707       -0.5247094974       -0.6201963612
 C         -2.8297824197        0.5057968900        0.3233413980
 C         -1.3337045233        0.6215798704        0.2130973535
 C         -0.5267959596       -0.4958857805        0.0639763722
 C          0.8736109858       -0.3922019279       -0.0126962642
 C          1.7027039169       -1.5179086568       -0.1700327547
 C          3.0734006751       -1.3771662422       -0.2417637076
 C          3.6581315332       -0.1213373802       -0.1595449519
 C          2.8775454201        1.0053476071       -0.0045586386
 C          1.4764528211        0.9005464142        0.0724059465
 C          0.6443183956        2.0212694087        0.2326970573
 C         -0.7263604341        1.8768590701        0.3036459375
 H         -2.8335801466       -2.2530997950        0.4124036995
 H         -4.0966281436       -2.5355841362       -0.6303306258
 H         -4.3664437856       -1.7630306796        0.8163789649
 H         -4.4369322748       -0.1556003911       -0.9892804074
 H         -2.8491301388       -0.6472119984       -1.5145046555
 H         -3.0914255279        0.2630730797        1.3579878388
 H         -3.2654927146        1.4944561773        0.1413987732
 H         -0.9733535441       -1.4691812696       -0.0020428435
 H          1.2561374682       -2.4952709214       -0.2341218211
 H          3.6960064816       -2.2491384186       -0.3621860633
 H          4.7307796675       -0.0261722458       -0.2167615786
 H          3.3366806123        1.9771113885        0.0591322048
 H          1.0891009961        2.9991900428        0.3025799223
 H         -1.3451181827        2.7488797558        0.4345222439
  27
        -35.30936943
 N         -4.7753963178       -1.1139082093       -0.0705230290
 C         -3.2826713858       -1.0698848608       -0.0586670484
 C         -2.7410467572        0.3568311783       -0.0127223296
 C         -1.2417031812        0.4974161279        0.0061584607
 C         -0.3816635566       -0.5918478108       -0.0270322302
 C          1.0160530555       -0.4288007904       -0.0092258835
 C          1.8999723904       -1.5231880702       -0.0425873086
 C          3.2654318268       -1.3261178677       -0.0240371237
 C          3.7914306532       -0.0430821856        0.0279473564
 C          2.9565950369        1.0544160475        0.0618101611
 C          1.5590071451        0.8918477725        0.0442646552
 C          0.6734611974        1.9818099709        0.0770503217
 C         -0.6914500497        1.7803092373        0.0579941652
 H         -5.1553425929       -0.6169580535       -0.8892754153
 H         -5.1672110666       -0.6665661683        0.7711400875
 H         -5.1326727365       -2.0845492568       -0.1020460734
 H         -2.9005543586       -1.5846132202       -0.9472862072
 H         -2.9128113505       -1.6362910378        0.8034535609
 H         -3.1489293813        0.8627356176        0.8681161251
 H         -3.1317204015        0.9125359374       -0.8707101105
 H         -0.7785857194       -1.5892495968       -0.0676614425
 H          1.4991407867       -2.5214776691       -0.0829258641
 H          3.9297026082       -2.1749526367       -0.0501922190
 H          4.8606477796        0.0963279748        0.0418948000
 H          3.3701448843        2.0476488644        0.1019736439
 H          1.0721705360        2.9810135699        0.1171279926
 H         -1.3543812838        2.6291196878        0.0833988323
  27
        -35.30892856
 N         -5.0630109221       -0.2450072669       -0.0499728535
 C         -3.6991769513        0.3522418414       -0.1663427002
 C         -2.5915451169       -0.6608961132        0.1131993902
 C         -1.1799096347       -0.1451791188        0.0149235802
 C         -0.1314723302       -1.0247896103        0.2447195228
 C          1.2115379310       -0.6126782150        0.1716108340
 C          2.2828648075       -1.4952997770        0.4023853271
 C          3.5876123188       -1.0540221146        0.3215894384
 C          3.8656512314        0.2695785950        0.0109819618
 C          2.8414756248        1.1638929533       -0.2215848552
 C          1.4986861454        0.7497944941       -0.1479510520
 C          0.4253462767        1.6267844260       -0.3774660995
 C         -0.8794813431        1.1837437186       -0.2961869139
 H         -5.1863139084       -1.0221775212       -0.7151310398
 H         -5.8031250182        0.4473320058       -0.2410243220
 H         -5.2263089319       -0.6205898213        0.8994743595
 H         -3.6159202370        1.1958066871        0.5280168038
 H         -3.5750237711        0.7720731944       -1.1709916014
 H         -2.7018802286       -1.5054481265       -0.5743308868
 H         -2.7394957763       -1.0816037515        1.1125180448
 H         -0.3489869776       -2.0500731862        0.4856424452
 H          2.0742024183       -2.5235590316        0.6436073774
 H          4.3980048399       -1.7421671289        0.5010952289
 H          4.8901326375        0.6008525900       -0.0486982582
 H          3.0632567839        2.1895788674       -0.4621631656
 H          0.6326897140        2.6552165715       -0.6188689879
 H         -1.6788125642        1.8809144695       -0.4774088212
  27
        -35.30661551
 N         -4.2284797206        0.8779653959       -0.6643678179
 C         -3.7304216614        0.1444992193        0.5593793196
 C         -2.6576825173       -0.9081608100        0.2534490690
 C         -1.2654006509       -0.3668899754        0.0760417582
 C         -0.1739759148       -1.1248449742        0.4774013482
 C          1.1457680732       -0.6685314044        0.3046352782
 C          2.2612658264       -1.4238524785        0.7111530451
 C          3.5414918012       -0.9443621280        0.5246080456
 C          3.7509898863        0.2926287803       -0.0683686593
 C          2.6822599168        1.0611941706       -0.4806261174
 C          1.3625850409        0.6049129563       -0.3066236207
 C          0.2460307655        1.3537629541       -0.7150726691
 C         -1.0318192479        0.8693298670       -0.5273362046
 H         -5.2413366191        0.7410422773       -0.8031227637
 H         -3.7700806758        0.5406396369       -1.5239803738
 H         -4.0767657488        1.9004734906       -0.6051027121
 H         -4.5874226055       -0.3319602008        1.0537399025
 H         -3.3419569788        0.8571856902        1.2968899571
 H         -2.9402890629       -1.4650642926       -0.6452944486
 H         -2.6353456884       -1.6510423179        1.0583839836
 H         -0.3363121598       -2.0868916273        0.9296667080
 H          2.1061229952       -2.3845462293        1.1716520593
 H          4.3862032219       -1.5348209585        0.8414604036
 H          4.7570265789        0.6548642498       -0.2082820666
 H          2.8509573472        2.0196055258       -0.9411885021
 H          0.3992224099        2.3127830481       -1.1794380458
 H         -1.8705398483        1.4581726401       -0.8491755962
