  27
        -35.31601348
 N         -3.3260293345       -1.1638242543       -1.1683113641
 C         -3.6869534273       -0.0158123168       -0.2878540745
 C         -2.7796095062        0.0921869167        0.9363864398
 C         -1.3407959420        0.3290794784        0.5827830790
 C         -0.4173486207       -0.7044213627        0.6362199261
 C          0.9319597751       -0.5011921006        0.2936625349
 C          1.8857727441       -1.5339867736        0.3523770491
 C          3.2013475369       -1.2969275636        0.0108683651
 C          3.6066611666       -0.0339573913       -0.3968956854
 C          2.7004625768        1.0037415671       -0.4657960035
 C          1.3505910140        0.7999505838       -0.1246656457
 C          0.3970526777        1.8311062846       -0.1769281701
 C         -0.9173815447        1.5932757185        0.1697114884
 H         -3.9406249563       -1.2210387221       -1.9945585203
 H         -3.4042664646       -2.0580483601       -0.6617086777
 H         -2.3528364593       -1.0806009014       -1.5076980438
 H         -4.7349487678       -0.1154440825        0.0209351375
 H         -3.6348125595        0.9121232092       -0.8688762027
 H         -2.8587187721       -0.8233973115        1.5307890124
 H         -3.1203634058        0.8976522833        1.5959457120
 H         -0.7337096774       -1.6816970979        0.9536992437
 H          1.5791171466       -2.5152206537        0.6719379545
 H          3.9211307609       -2.0979967334        0.0627806719
 H          4.6383576525        0.1373156326       -0.6598745170
 H          3.0215367394        1.9820786370       -0.7803090294
 H          0.7045691724        2.8148562703       -0.4876885212
 H         -1.6339449130        2.3964237074        0.1293153166
