27
 energy: -35.321504969878 gnorm: 0.000396408459 xtb: 6.5.1 (fef0646)
N            3.09003240300213        0.58746679825200        0.72428188150776
C            2.52579643107111       -0.76027755826170        0.41710663723136
C            3.01965826802596       -1.17614840298599       -0.97076716733867
C            4.52599334612098       -1.11281312426908       -0.97977744160004
C            5.28575149492484       -2.19633351810933       -0.62317779136346
C            6.68972692127976       -2.11013582651094       -0.53594826904693
C            7.48574491103410       -3.22203314834228       -0.19059031369860
C            8.84579600538961       -3.10534834198069       -0.11809264895218
C            9.47190447593750       -1.87597681500932       -0.38428145594923
C            8.72914444571760       -0.77821900355473       -0.71757127877767
C            7.32367969096709       -0.86510541094471       -0.80312666824057
C            6.52727649092065        0.23549093425656       -1.17302923615062
C            5.16269590109951        0.12339443273994       -1.25293681700066
H            3.13428824525474        0.77783017339408        1.72939451047655
H            2.54249823005868        1.32576948679212        0.26907722425741
H            4.06041720318917        0.58453767476048        0.29238809627004
H            1.43775617400174       -0.72939727740065        0.46900346651918
H            2.89793186053718       -1.46469454593672        1.16205271698485
H            2.60019941823878       -0.51722593102508       -1.73248519527798
H            2.67680419529559       -2.18843001974024       -1.17707114170088
H            4.81297661348021       -3.14572110842385       -0.41768685308050
H            7.00187706862714       -4.16630102041532        0.01026857065044
H            9.45063867451895       -3.96014708203797        0.14242830862153
H           10.54705490396115       -1.80705110208942       -0.32524012268428
H            9.20496461451393        0.16833773322508       -0.92633421138825
H            7.00991679451107        1.17225632120515       -1.40852492107088
H            4.58740521832003        0.95206568241272       -1.64964987919785
