  23
        -32.76959311
 N         -2.4673046689        1.5662493180       -0.7166344324
 C         -1.4918289112        2.0152827774        0.3121942159
 C         -0.1849753622        1.2904330262        0.2213838652
 C          1.0085544599        1.9861435637        0.0820947005
 C          2.2118681520        1.3147975978        0.0023764527
 C          2.2617523110       -0.0767899947        0.0561488724
 C          3.5530949777       -0.7662381785       -0.0273437516
 C          3.7097671283       -2.0427932001       -0.3526499303
 C          1.0608121632       -0.7691534304        0.1996399422
 C         -0.1405695536       -0.0944154207        0.2794452156
 Cl        -3.2218008192       -1.7690088526        0.0681748129
 H         -3.3425946087        2.1146595228       -0.6927424250
 H         -2.7182468089        0.5714550528       -0.5757930159
 H         -2.0650612110        1.6515104985       -1.6654810929
 H         -1.9138053605        1.8748581415        1.3142412901
 H         -1.3213824124        3.0934210596        0.2107094670
 H          0.9883099766        3.0627898289        0.0364610610
 H          3.1307852545        1.8673086435       -0.1073790149
 H          4.4274280395       -0.1705201084        0.1835490224
 H          2.8726553967       -2.6677212340       -0.5961836523
 H          4.6812207263       -2.4982489414       -0.4020155929
 H          1.0722578771       -1.8444063977        0.2612139454
 H         -1.0613702814       -0.6456847884        0.3791891171
