21
 energy: -25.831287961450 gnorm: 0.000713376518 xtb: 6.5.1 (fef0646)
N            3.73415019821418       -0.86950855425337       -0.29123115880152
C            2.50964270127654       -0.06685080964416        0.01141984892390
C            1.69409190568897       -0.79221343404862        1.07485164296262
C            2.90616641641902        1.32212783280328        0.45479926412233
C            2.45682026180680        2.43273505678555       -0.24693528386394
C            2.80583858948752        3.70888267798874        0.16066447495404
C            3.61232946320022        3.88647141947147        1.27201748382185
C            4.06356259213660        2.78331427801131        1.97807450592671
C            3.71215585007927        1.50847161978071        1.57293195092929
H            3.47433261427956       -1.81928049887367       -0.58330347690239
H            4.32135754982075       -0.93697849988915        0.54881125664174
H            4.28529781362052       -0.42854863681827       -1.03695696184761
H            1.92064847924158        0.00975343783657       -0.90596923776692
H            2.26115783201344       -0.91445609515325        1.99284503614850
H            1.37294490662021       -1.76761282556474        0.72050211500866
H            0.80550109354607       -0.21512544591909        1.31191439681148
H            1.82487929122311        2.30854990680857       -1.11340268416726
H            2.45112083086266        4.56718583765695       -0.38982266717849
H            3.88707920794034        4.88176143458687        1.58807280794289
H            4.68860694982315        2.92096440745199        2.84737217801070
H            4.06223545269949        0.66943689098228        2.15443450832343
