21
 energy: -25.727664991840 gnorm: 0.000702865045 xtb: 6.5.1 (fef0646)
N            1.17222205250358        0.26654108391498       -0.74086306227103
C            2.50087486245762       -0.02094163923759       -0.06307021844542
C            2.30538685043217        0.09362747378959        1.43879404403880
C            2.97098425714192       -1.38479412700822       -0.50342649101629
C            4.19217147295261       -1.52416820915822       -1.15073768845759
C            4.63052592890411       -2.77497870369912       -1.55073522474670
C            3.84804455974006       -3.89248911491877       -1.31423656567637
C            2.62806039740108       -3.75993242988305       -0.67100918210624
C            2.18994537071012       -2.51221461014508       -0.26526116314862
H            0.77829493922325        1.15698514717717       -0.41353699767031
H            0.52142972134427       -0.49541876383501       -0.50486566313540
H            1.28170591304050        0.29437524541032       -1.76137649470871
H            3.20622194384753        0.74124083821589       -0.40514241814075
H            1.59289530098553       -0.64041890719913        1.80540331104704
H            1.97238867635815        1.09008539663365        1.72027331283147
H            3.25307335433485       -0.09280724059082        1.93630647110322
H            4.80600710299200       -0.65457734702289       -1.33224239389630
H            5.58250505887379       -2.87347527387940       -2.04754983088103
H            4.18862945253181       -4.86679410062187       -1.62647084313390
H            2.01825476299528       -4.62893030553578       -0.48045895422994
H            1.24310802122977       -2.43340441240658        0.25300605264408
