  21
        -25.83000873
 N          2.3139840879        0.2550028220        1.1726270399
 C          1.6621735688       -0.4194485532        0.0002737303
 C          2.2999077820        0.0055840161       -1.3176638597
 C          0.1694227731       -0.1934733109        0.0012826239
 C         -0.3617818149        1.0965464497       -0.0707384359
 C         -1.7375590304        1.3009526170       -0.0722025780
 C         -2.6026900300        0.2160958761       -0.0032432641
 C         -2.0893720733       -1.0730278812        0.0671557975
 C         -0.7137334902       -1.2762589876        0.0692800964
 H          3.3121706885        0.0248129424        1.2255390161
 H          1.8679062829       -0.0337692128        2.0497441924
 H          2.2300924382        1.2740942718        1.0961211659
 H          1.8275716695       -1.5024947850        0.1250255254
 H          2.1819443801        1.0762927151       -1.4762036218
 H          1.8387670812       -0.5050032670       -2.1634490501
 H          3.3673805585       -0.2128238323       -1.3325670685
 H          0.3021345000        1.9407918097       -0.1293989243
 H         -2.1329522741        2.3018868446       -0.1276970083
 H         -3.6689342100        0.3739273759       -0.0054871618
 H         -2.7582177035       -1.9163386833        0.1196411564
 H         -0.3220088525       -2.2772918557        0.1228690242
