  21
  -25.830008729999999        5.5934629287192943E-002 !mtd11
 N          2.3139840879        0.2550028220        1.1726270399
 C          1.6621735688       -0.4194485532        0.0002737303
 C          2.2999077820        0.0055840161       -1.3176638597
 C          0.1694227731       -0.1934733109        0.0012826239
 C         -0.3617818149        1.0965464497       -0.0707384359
 C         -1.7375590304        1.3009526170       -0.0722025780
 C         -2.6026900300        0.2160958761       -0.0032432641
 C         -2.0893720733       -1.0730278812        0.0671557975
 C         -0.7137334902       -1.2762589876        0.0692800964
 H          3.3121706885        0.0248129424        1.2255390161
 H          1.8679062829       -0.0337692128        2.0497441924
 H          2.2300924382        1.2740942718        1.0961211659
 H          1.8275716695       -1.5024947850        0.1250255254
 H          2.1819443801        1.0762927151       -1.4762036218
 H          1.8387670812       -0.5050032670       -2.1634490501
 H          3.3673805585       -0.2128238323       -1.3325670685
 H          0.3021345000        1.9407918097       -0.1293989243
 H         -2.1329522741        2.3018868446       -0.1276970083
 H         -3.6689342100        0.3739273759       -0.0054871618
 H         -2.7582177035       -1.9163386833        0.1196411564
 H         -0.3220088525       -2.2772918557        0.1228690242
  21
  -25.830008190000001        5.5902675960086995E-002 !mtd9
 N          2.2401422316       -0.4757761056       -1.2405881022
 C          1.6986589565        0.2298014743       -0.0310270360
 C          2.3167281408       -0.3072324936        1.2550469335
 C          0.1903120266        0.1735978993        0.0032756208
 C         -0.5661470645        1.3497370100       -0.0249802032
 C         -1.9557323770        1.3022873249        0.0039564235
 C         -2.6097814102        0.0779220134        0.0619914188
 C         -1.8712514954       -1.0984949079        0.0925801204
 C         -0.4816332682       -1.0499008541        0.0644651775
 H          1.8127201345       -0.1073098235       -2.0969055521
 H          2.0370059233       -1.4797220180       -1.1934154627
 H          3.2573391154       -0.3634458267       -1.3114377942
 H          1.9831973890        1.2906686098       -0.1286098289
 H          3.4024981907       -0.2152962022        1.2435707914
 H          2.0781793890       -1.3612605561        1.3876367753
 H          1.9415262568        0.2274593321        2.1280553967
 H         -0.0651706762        2.3013144309       -0.0700729875
 H         -2.5261085331        2.2163397053       -0.0189470377
 H         -3.6868532836        0.0408397232        0.0832735420
 H         -2.3757313369       -2.0496753375        0.1382955375
 H          0.0838768569       -1.9643542529        0.0937064504
  21
  -25.830006340000001        5.5793344553718364E-002 !mtd4
 N          2.3125370174        0.2473292698        1.1751199942
 C          1.6621668714       -0.4196175387       -0.0022680156
 C          2.3014528394        0.0138948271       -1.3167317905
 C          0.1694200933       -0.1935463069       -0.0008783990
 C         -0.3617634481        1.0962953147       -0.0764081421
 C         -1.7375213053        1.3008271250       -0.0765398525
 C         -2.6026511372        0.2163287926       -0.0021411184
 C         -2.0893533046       -1.0725690846        0.0724211788
 C         -0.7137353674       -1.2759446921        0.0729586007
 H          1.8665166667       -0.0482029406        2.0499421874
 H          2.2269628949        1.2667804430        1.1056892609
 H          3.3110970245        0.0182299124        1.2268362279
 H          1.8274593294       -1.5034630126        0.1154660471
 H          2.1855760078        1.0859212018       -1.4676570523
 H          1.8400139012       -0.4898082935       -2.1664716337
 H          3.3685692404       -0.2061897452       -1.3325490150
 H          0.3021443047        1.9403117617       -0.1385152468
 H         -2.1329031468        2.3015859205       -0.1351697142
 H         -3.6688795752        0.3742735525       -0.0032273578
 H         -2.7581946254       -1.9155861589        0.1294979210
 H         -0.3220313420       -2.2767849566        0.1301207762
  21
  -25.830004850000002        5.5705443927103616E-002 !md4
 N          2.2390857533       -0.5839772223       -1.2030076115
 C          1.6978666744        0.2274599176       -0.0615498923
 C          2.3194033444       -0.1895513887        1.2665326511
 C          0.1897832243        0.1726134998       -0.0172971915
 C         -0.5671366035        1.3456756290       -0.1034384470
 C         -1.9563825971        1.3004137835       -0.0596513451
 C         -2.6095881502        0.0812149988        0.0707496801
 C         -1.8706188672       -1.0919356487        0.1596141520
 C         -0.4812778249       -1.0453715820        0.1177409066
 H          3.2539244986       -0.4653251274       -1.2938239654
 H          1.7997934133       -0.3040017040       -2.0863415131
 H          2.0512268707       -1.5816654950       -1.0588669177
 H          1.9796840025        1.2755356634       -0.2565805111
 H          1.9454371958        0.4219332113        2.0880823773
 H          3.4050356602       -0.0985141833        1.2443203071
 H          2.0815318478       -1.2273407054        1.4947567680
 H         -0.0668070325        2.2933151167       -0.2039330448
 H         -2.5269963363        2.2121318385       -0.1262798002
 H         -3.6863546793        0.0456073795        0.1038458401
 H         -2.3745893227       -2.0389820077        0.2613080200
 H          0.0846012691       -1.9568853390        0.1933307148
  21
  -25.830004070000001        5.5659484070669694E-002 !gc
 N          2.2422992473       -0.4053210472       -1.2585628752
 C          1.6987836998        0.2295648089       -0.0113468413
 C          2.3148290785       -0.3802715544        1.2429410199
 C          0.1903138250        0.1724706697        0.0155085320
 C         -0.5655666461        1.3493212508        0.0233686643
 C         -1.9552639767        1.3018649108        0.0438876310
 C         -2.6099585617        0.0765956245        0.0572433839
 C         -1.8721306143       -1.1006292052        0.0503720852
 C         -0.4823797961       -1.0520777429        0.0296675359
 H          3.2594769566       -0.2884964290       -1.3212189239
 H          1.8163070363        0.0115993434       -2.0931800196
 H          2.0390941788       -1.4102671474       -1.2691514225
 H          1.9834969095        1.2942221840       -0.0466224540
 H          2.0835124760       -1.4420450873        1.3105119505
 H          1.9319360667        0.0982186622        2.1447038900
 H          3.4000131788       -0.2807790837        1.2425128169
 H         -0.0641425366        2.3016435202        0.0127983752
 H         -2.5250485269        2.2165297561        0.0491648129
 H         -3.6870711395        0.0394634034        0.0731402727
 H         -2.3774163194       -2.0523891337        0.0614102782
 H          0.0824532242       -1.9674301826        0.0270609227
  21
  -25.830004030000001        5.5657128177387320E-002 !md2
 N          2.3114504425        0.2441361877        1.1764614232
 C          1.6621492700       -0.4197989132       -0.0032693113
 C          2.3027141919        0.0176190719       -1.3158337345
 C          0.1693966821       -0.1937540620       -0.0027666632
 C         -0.3617510437        1.0959933610       -0.0800699939
 C         -1.7374596336        1.3007850597       -0.0782352614
 C         -2.6026622964        0.2165534211       -0.0004921115
 C         -2.0893842256       -1.0723266864        0.0750002657
 C         -0.7137986371       -1.2759208408        0.0738178898
 H          2.2234683136        1.2634977382        1.1103619756
 H          3.3105623415        0.0169659047        1.2267128006
 H          1.8666808751       -0.0548734939        2.0508395661
 H          1.8274614812       -1.5039691161        0.1115968684
 H          2.1863585645        1.0899711116       -1.4641525471
 H          1.8423913678       -0.4840808088       -2.1673547345
 H          3.3700240598       -0.2017355233       -1.3308978103
 H          0.3022117347        1.9397709763       -0.1448706236
 H         -2.1326381531        2.3016034915       -0.1376348332
 H         -3.6689085344        0.3747202238        0.0005930143
 H         -2.7581977981       -1.9152275979        0.1344383380
 H         -0.3221534633       -2.2766954222        0.1326372236
  21
  -25.830003940000001        5.5651827782035902E-002 !gc
 N          2.3120960854        0.2471274847        1.1754817283
 C          1.6621471117       -0.4197358082       -0.0022611317
 C          2.3020517234        0.0143484170       -1.3162352418
 C          0.1693984143       -0.1936976021       -0.0018634481
 C         -0.3617654335        1.0961208705       -0.0777964872
 C         -1.7374884895        1.3008362386       -0.0765396808
 C         -2.6026847071        0.2164438957       -0.0009981369
 C         -2.0893894055       -1.0725200758        0.0728978864
 C         -0.7137928401       -1.2760316010        0.0724255167
 H          3.3109829463        0.0193513019        1.2262742334
 H          1.8672160906       -0.0490455178        2.0507732673
 H          2.2249732374        1.2664338886        1.1064708955
 H          1.8274533725       -1.5036140074        0.1153555695
 H          3.3693843833       -0.2047248649       -1.3311546876
 H          2.1852380617        1.0862532195       -1.4673426408
 H          1.8414919338       -0.4897710490       -2.1662579132
 H          0.3021913528        1.9400112522       -0.1411140357
 H         -2.1326912115        2.3017171691       -0.1347020627
 H         -3.6689420862        0.3745455197       -0.0004580935
 H         -2.7582010781       -1.9155508598        0.1304911275
 H         -0.3221339757       -2.2768769761        0.1299328541
  21
  -25.830003869999999        5.5647705601182929E-002 !gc
 N          2.3107479382        0.2406953407        1.1775568125
 C          1.6621578003       -0.4198739734       -0.0044255923
 C          2.3034415675        0.0213584645       -1.3153804556
 C          0.1694029273       -0.1938095243       -0.0037662986
 C         -0.3617391343        1.0958537791       -0.0826247987
 C         -1.7374357705        1.3007178433       -0.0801732162
 C         -2.6026394832        0.2166693086        0.0000200741
 C         -2.0893680534       -1.0720999063        0.0773874496
 C         -0.7137958949       -1.2757829281        0.0754608565
 H          3.3099766978        0.0142191628        1.2272047086
 H          1.8660623273       -0.0614862709        2.0508826435
 H          2.2218099315        1.2602432689        1.1147368355
 H          1.8274692879       -1.5043744308        0.1072832883
 H          1.8429524554       -0.4771902462       -2.1686760106
 H          3.3705378850       -0.1987847105       -1.3308500715
 H          2.1880582960        1.0943148286       -1.4602687652
 H          0.3022212921        1.9395189190       -0.1489425875
 H         -2.1325949247        2.3014606395       -0.1409530197
 H         -3.6688773595        0.3748955701        0.0016099480
 H         -2.7581873807       -1.9148462110        0.1389194758
 H         -0.3221727443       -2.2764748873        0.1357995518
  21
  -25.830003860000001        5.5647116743308973E-002 !gc
 N          2.3124173544        0.2488237478        1.1749457525
 C          1.6621425629       -0.4196871498       -0.0016957156
 C          2.3017443971        0.0124745485       -1.3164407034
 C          0.1693932486       -0.1936644817       -0.0014108536
 C         -0.3617871467        1.0961917985       -0.0765666439
 C         -1.7375166871        1.3008673082       -0.0755646555
 C         -2.6027047824        0.2163853501       -0.0012102000
 C         -2.0893928322       -1.0726275589        0.0717317643
 C         -0.7137888376       -1.2760917412        0.0715843415
 H          1.8676529434       -0.0459163681        2.0507070795
 H          2.2255823730        1.2680544915        1.1044084512
 H          3.3113101551        0.0208415349        1.2259587711
 H          1.8274631005       -1.5033904895        0.1175078620
 H          1.8418716746       -0.4938041054       -2.1655078128
 H          3.3693017143       -0.2054685961       -1.3307705099
 H          2.1837552277        1.0839985733       -1.4696745026
 H          0.3021614160        1.9401447171       -0.1390990074
 H         -2.1327247945        2.3017898433       -0.1329759304
 H         -3.6689665577        0.3744552600       -0.0008850344
 H         -2.7581946752       -1.9157366451        0.1282746735
 H         -0.3221089131       -2.2769761562        0.1282625512
  21
  -25.830003730000001        5.5639462155873634E-002 !gc
 N          2.3123691761        0.2484192808        1.1750602086
 C          1.6621438948       -0.4197023613       -0.0018258639
 C          2.3017778467        0.0129328609       -1.3164015150
 C          0.1693948412       -0.1936747832       -0.0014790026
 C         -0.3617762440        1.0961734531       -0.0768223774
 C         -1.7375044290        1.3008589860       -0.0758095679
 C         -2.6026977846        0.2163985669       -0.0011997728
 C         -2.0893940763       -1.0726022635        0.0719968887
 C         -0.7137925449       -1.2760799178        0.0718103352
 H          1.8673876310       -0.0464245510        2.0506787550
 H          2.2257301748        1.2676774506        1.1047254364
 H          3.3112182359        0.0202617333        1.2261700999
 H          1.8274634996       -1.5034480810        0.1169889971
 H          3.3692671033       -0.2053923779       -1.3309549117
 H          2.1841724904        1.0845343627       -1.4690525676
 H          1.8416144080       -0.4927401812       -2.1657164064
 H          0.3021805962        1.9401077065       -0.1395317293
 H         -2.1327103092        2.3017692281       -0.1334417395
 H         -3.6689590795        0.3744736197       -0.0008633099
 H         -2.7582026228       -1.9156896698        0.1287906952
 H         -0.3221227926       -2.2769559923        0.1287080439
  21
  -25.830003710000000        5.5638284620400144E-002 !md2
 N          2.3127533047        0.2502711885        1.1744584942
 C          1.6621407150       -0.4196563879       -0.0012008243
 C          2.3013847553        0.0109051111       -1.3166377397
 C          0.1693928637       -0.1936422585       -0.0009347666
 C         -0.3617893116        1.0962473996       -0.0754353118
 C         -1.7375245086        1.3008914585       -0.0747615363
 C         -2.6027124130        0.2163351638       -0.0014825256
 C         -2.0893960974       -1.0727186320        0.0707086921
 C         -0.7137878082       -1.2761486269        0.0709224676
 H          2.2266182878        1.2693886797        1.1023567994
 H          3.3115070571        0.0217547232        1.2258649968
 H          1.8677244931       -0.0428716273        2.0507000438
 H          1.8274688317       -1.5032125428        0.1193242537
 H          1.8412913476       -0.4964204284       -2.1649598963
 H          3.3689457820       -0.2070149274       -1.3309912732
 H          2.1832767625        1.0822359821       -1.4711407794
 H          0.3021649670        1.9402418319       -0.1373155517
 H         -2.1327389149        2.3018400944       -0.1316715764
 H         -3.6689792455        0.3743722405       -0.0014602867
 H         -2.7581962272       -1.9158880181        0.1263668920
 H         -0.3220991613       -2.2770666818        0.1269533458
  21
  -25.830003399999999        5.5620036008468786E-002 !gc
 N          2.3132583196        0.2526671945        1.1736736003
 C          1.6621394773       -0.4195967941       -0.0003871615
 C          2.3008736236        0.0082820182       -1.3169311285
 C          0.1693910937       -0.1935986091       -0.0002254477
 C         -0.3618077715        1.0963420808       -0.0736638196
 C         -1.7375524044        1.3009309622       -0.0734011410
 C         -2.6027321098        0.2162530517       -0.0018316795
 C         -2.0894004686       -1.0728672828        0.0690272568
 C         -0.7137837311       -1.2762348623        0.0697699262
 H          2.2275986735        1.2716680939        1.0993647142
 H          3.3119321021        0.0238542964        1.2254045386
 H          1.8682899385       -0.0383991521        2.0506398620
 H          1.8274727448       -1.5029037895        0.1223560804
 H          3.3685509524       -0.2091383435       -1.3310237544
 H          2.1821450097        1.0791543775       -1.4738114602
 H          1.8408245379       -0.5012115376       -2.1640226547
 H          0.3021390813        1.9404128919       -0.1345285003
 H         -2.1327811566        2.3019312436       -0.1292874539
 H         -3.6690056306        0.3742454961       -0.0021321002
 H         -2.7581980348       -1.9161355420        0.1232090178
 H         -0.3220848166       -2.2772085481        0.1247240569
  21
  -25.829995170000000        5.5137747415299913E-002 !md1
 N          2.2414368138       -0.4474361071       -1.2480690411
 C          1.6986636845        0.2298457032       -0.0230035782
 C          2.3156957138       -0.3366357543        1.2509209554
 C          0.1902647879        0.1730808041        0.0079990775
 C         -0.5659268674        1.3496830122       -0.0058502568
 C         -1.9555443516        1.3023104167        0.0199148313
 C         -2.6098266877        0.0774112465        0.0603971628
 C         -1.8716719598       -1.0995278166        0.0757062489
 C         -0.4820020810       -1.0510544905        0.0500205702
 H          2.0422215229       -1.4529161736       -1.2230118435
 H          3.2580874844       -0.3292573272       -1.3176454855
 H          1.8115983629       -0.0617051878       -2.0955424532
 H          1.9829379911        1.2927848819       -0.0953040519
 H          3.4009595042       -0.2387388806        1.2456527277
 H          2.0827638845       -1.3950235726        1.3557413998
 H          1.9345638845        0.1734227902        2.1359983214
 H         -0.0647903313        2.3016956809       -0.0372982017
 H         -2.5255914280        2.2167543520        0.0083472188
 H         -3.6868714271        0.0403392468        0.0803407807
 H         -2.3766119164       -2.0509942968        0.1077994993
 H          0.0831116137       -1.9661009532        0.0653728762
  21
  -25.829994330000002        5.5088758148391474E-002 !mtd11
 N          2.2418695499       -0.4644166495       -1.2429352286
 C          1.6986073552        0.2298220620       -0.0276084120
 C          2.3151436752       -0.3187470243        1.2543436459
 C          0.1902267916        0.1731996278        0.0041228657
 C         -0.5660644403        1.3496016035       -0.0184732053
 C         -1.9556365539        1.3023492226        0.0100392270
 C         -2.6097514640        0.0777943809        0.0620740400
 C         -1.8714795888       -1.0989298664        0.0860891210
 C         -0.4818572268       -1.0505803340        0.0577644153
 H          3.2583735531       -0.3465354411       -1.3141807459
 H          1.8117320763       -0.0909329621       -2.0957320298
 H          2.0434807393       -1.4696740751       -1.2037704956
 H          1.9827594457        1.2917110445       -0.1148258192
 H          3.4003628449       -0.2204810123        1.2484471763
 H          2.0824195784       -1.3756514432        1.3736484463
 H          1.9332300852        0.2033288859        2.1320266186
 H         -0.0650523940        2.3013576194       -0.0584933773
 H         -2.5257718274        2.2166307887       -0.0081231152
 H         -3.6867534263        0.0408179616        0.0843433000
 H         -2.3762971576       -2.0501031131        0.1274317186
 H          0.0834076654       -1.9653764653        0.0807300864
  21
  -25.829993739999999        5.5054375045220726E-002 !mtd3
 N          2.2419046911       -0.4589836044       -1.2445013245
 C          1.6986266863        0.2298372554       -0.0261033097
 C          2.3151080580       -0.3244764025        1.2534062098
 C          0.1902368956        0.1731658935        0.0051837229
 C         -0.5660224278        1.3496393015       -0.0145839997
 C         -1.9556074725        1.3023429165        0.0131763839
 C         -2.6097707560        0.0776675101        0.0616193456
 C         -1.8715341537       -1.0991331805        0.0827831463
 C         -0.4818991746       -1.0507411012        0.0551635146
 H          1.8119471392       -0.0815787622       -2.0955854810
 H          2.0433028075       -1.4643725387       -1.2099124425
 H          3.2584960641       -0.3409378307       -1.3151232805
 H          1.9828346108        1.2920924913       -0.1084815118
 H          2.0823606240       -1.3819047947        1.3680183419
 H          1.9332354014        0.1936944757        2.1333591589
 H          3.4003682558       -0.2262415444        1.2479450238
 H         -0.0649775910        2.3014889374       -0.0518723478
 H         -2.5257169111        2.2166809187       -0.0028301604
 H         -3.6867835604        0.0406586244        0.0832995235
 H         -2.3763898350       -2.0504029897        0.1213452611
 H          0.0833323082       -1.9656141190        0.0757744591
  21
  -25.829993699999999        5.5052044764326097E-002 !mtd3
 N          2.2419263298       -0.4581533678       -1.2447262878
 C          1.6986306283        0.2298414327       -0.0258706814
 C          2.3150827271       -0.3253511112        1.2532731606
 C          0.1902392092        0.1731602904        0.0053293144
 C         -0.5660150965        1.3496439899       -0.0140078873
 C         -1.9556017965        1.3023414903        0.0136525587
 C         -2.6097719092        0.0776488119        0.0615613465
 C         -1.8715406315       -1.0991632737        0.0822794766
 C         -0.4819039370       -1.0507655165        0.0547529315
 H          1.8119816106       -0.0801699029       -2.0955598231
 H          2.0433134534       -1.4635634392       -1.2108206907
 H          3.2585189962       -0.3400632092       -1.3152527713
 H          1.9828466309        1.2921513885       -0.1075086813
 H          1.9330977009        0.1921459961        2.1335889264
 H          3.4002876615       -0.2270177311        1.2479546268
 H          2.0824205919       -1.3829180601        1.3671037311
 H         -0.0649653184        2.3015068486       -0.0508890956
 H         -2.5257069248        2.2166880259       -0.0020180258
 H         -3.6867860282        0.0406357687        0.0831686269
 H         -2.3764027790       -2.0504465388        0.1204222081
 H          0.0833230081       -1.9656497176        0.0749983756
  21
  -25.829993429999998        5.5036317947806994E-002 !md4
 N          2.2418183743       -0.4591885707       -1.2444945908
 C          1.6986270918        0.2298288227       -0.0261711481
 C          2.3152106368       -0.3242583427        1.2533855610
 C          0.1902389599        0.1731683316        0.0052291485
 C         -0.5660215852        1.3496391505       -0.0146548497
 C         -1.9556080128        1.3023429738        0.0130649238
 C         -2.6097730942        0.0776720942        0.0616022982
 C         -1.8715364945       -1.0991252544        0.0829091747
 C         -0.4819011776       -1.0507335686        0.0553093964
 H          2.0429085766       -1.4644524309       -1.2099018595
 H          3.2584569180       -0.3414727617       -1.3150079363
 H          1.8120515123       -0.0816504082       -2.0956892980
 H          1.9828501250        1.2920636414       -0.1087690941
 H          1.9340512073        0.1946309701        2.1332405416
 H          3.4004885620       -0.2267819113        1.2474406410
 H          2.0817732471       -1.3815023736        1.3686298958
 H         -0.0649744986        2.3014844980       -0.0520220119
 H         -2.5257186910        2.2166780775       -0.0030657688
 H         -3.6867868987        0.0406572055        0.0832260583
 H         -2.3763886702       -2.0503955034        0.1215161732
 H          0.0833216370       -1.9656126174        0.0758941828
  21
  -25.829993089999999        5.5016520199282395E-002 !mtd5
 N          2.2420013231       -0.4508158071       -1.2467672638
 C          1.6986591180        0.2298551824       -0.0238341419
 C          2.3149959236       -0.3330733492        1.2519870879
 C          0.1902544796        0.1731022437        0.0067257282
 C         -0.5659554287        1.3496706269       -0.0088031512
 C         -1.9555584243        1.3023176599        0.0178774042
 C         -2.6097931490        0.0774818937        0.0609766066
 C         -1.8716107461       -1.0994224851        0.0778234009
 C         -0.4819575622       -1.0509761643        0.0512162582
 H          2.0430839492       -1.4562956442       -1.2190329568
 H          3.2586346838       -0.3325397690       -1.3164082399
 H          1.8122656716       -0.0675008527       -2.0953882261
 H          1.9829454343        1.2926218321       -0.0989445690
 H          2.0827347384       -1.3913804871        1.3592026396
 H          1.9326247862        0.1788170660        2.1353914656
 H          3.4002160543       -0.2343190778        1.2475324032
 H         -0.0648595386        2.3016444806       -0.0420079582
 H         -2.5256264567        2.2167331785        0.0051401763
 H         -3.6868206723        0.0404307015        0.0818322984
 H         -2.3765252929       -2.0508207926        0.1122193959
 H          0.0832258010       -1.9659530345        0.0682759095
  21
  -25.825656209999998        5.5898617558811461E-004 !mtd13
 N          2.2699175022       -0.9684598535        0.8954144344
 C          1.6622016951       -0.2885696088       -0.3018954937
 C          2.4169347308        1.0090107169       -0.5868834751
 C          0.1666612724       -0.0880040815       -0.1471137035
 C         -0.4992197987        0.9795737163       -0.7623343993
 C         -1.8758607948        1.1370357196       -0.6396969043
 C         -2.6202410235        0.2217166512        0.0921186983
 C         -1.9827213100       -0.8545423794        0.6943036406
 C         -0.6059143242       -1.0078273656        0.5699347609
 H          2.0553978451       -0.4374963945        1.7462935424
 H          3.2909026495       -1.0235919515        0.8065507097
 H          1.9249771394       -1.9278491665        1.0146157222
 H          1.8031097353       -0.9645890453       -1.1617588389
 H          3.4937745506        0.8434458504       -0.5986748012
 H          2.2083635059        1.7495290686        0.1842283157
 H          2.1484561456        1.4379599520       -1.5520970849
 H          0.0541847416        1.6908259000       -1.3487833818
 H         -2.3669482756        1.9690534104       -1.1173727303
 H         -3.6871991379        0.3426135050        0.1870363718
 H         -2.5561061102       -1.5736599120        1.2560646431
 H         -0.1333924846       -1.8562026442        1.0292774208
  21
  -25.825654730000000        5.5811141665496522E-004 !mtd6
 N          2.3809228780        1.0759726441        0.2539745120
 C          1.6717681606       -0.2512063513        0.2819417274
 C          2.2870375817       -1.1787892921       -0.7647397930
 C          0.1696361620       -0.0990293414        0.1360789684
 C         -0.4863019966        1.0244548263        0.6499635032
 C         -1.8668732498        1.1636636521        0.5523608794
 C         -2.6249836528        0.1718696319       -0.0549371958
 C         -1.9970174824       -0.9603181117       -0.5563587719
 C         -0.6163644304       -1.0959660245       -0.4560301589
 H          2.1421301294        1.5833316599       -0.6048294083
 H          3.3990007960        0.9477540556        0.2721596173
 H          2.1364447157        1.6643917181        1.0586818437
 H          1.8498774953       -0.6901731629        1.2778452830
 H          1.9455899710       -2.2078308843       -0.6544960627
 H          3.3738190217       -1.1924511216       -0.6882907294
 H          2.0340275687       -0.8423249178       -1.7693687245
 H          0.0809641706        1.7950032653        1.1384116085
 H         -2.3494758992        2.0408627498        0.9513290932
 H         -3.6949851890        0.2775545587       -0.1315007216
 H         -2.5816839104       -1.7374350700       -1.0209575749
 H         -0.1539363671       -1.9894074998       -0.8353993157
