21
 energy: -25.831269086665 gnorm: 0.000195319149 xtb: 6.5.1 (fef0646)
N            3.20392152188855       -0.86045138485674        1.09396668850019
C            2.47927404283484       -0.09204855664422        0.03582113312667
C            0.98929820094325       -0.39513570709470        0.13741740286755
C            3.03100431605305       -0.44352955133481       -1.32648279973481
C            3.56815837742001        0.54920281683099       -2.13530536216707
C            4.05736211142729        0.24158136893779       -3.39318929105320
C            4.01750633369638       -1.06397424635732       -3.85283262899751
C            3.48402839200178       -2.05983947825823       -3.05121027779133
C            2.99273745305882       -1.75237061303032       -1.79528940152744
H            4.20705456549793       -0.64306788705231        1.08139965353935
H            3.08821653324930       -1.86842839346481        0.93388934148070
H            2.82309421104983       -0.63305282798070        2.02039907534366
H            2.64533811412531        0.97231440426409        0.21818698224748
H            0.79034558917651       -1.45231609809615       -0.01034901155604
H            0.45208379613959        0.15100659944110       -0.63195707651939
H            0.59436750435944       -0.08794282149506        1.10145806786594
H            3.60122471509695        1.57129790590451       -1.78934400778160
H            4.47024280583646        1.02039043499266       -4.01653349665011
H            4.39785994268976       -1.30405241900854       -4.83439347886824
H            3.44880037511408       -3.07714162889734       -3.41081051335326
H            2.56656109834086       -2.54571191679988       -1.20059099897159
