21
 energy: -25.316594277042 gnorm: 0.000661424905 xtb: 6.5.1 (fef0646)
N            1.11447643771852       -0.34531296449056        0.10603982853573
C            2.57458394233091       -0.28441913992457        0.04338616085319
C            3.06546188741730        1.07334659527375        0.53576952732615
C            4.58308975668174        1.19706879291107        0.42900457487073
C            5.08116596205585        2.55806867922383        0.90979766892196
C            6.59919768922581        2.66424841116536        0.82726736338516
Cl          -0.06854644100037        1.75898655030423       -1.55856745607271
H            0.76850350864277       -1.23646016303279       -0.23154852826322
H            0.49727323485065        0.77728404235351       -0.78449818887980
H            0.78945461625602       -0.20672496902905        1.05748996131487
H            2.86294234838910       -0.42163081536153       -1.00141353193068
H            3.04557480845978       -1.08308297646457        0.63468097474542
H            2.76190420942504        1.21121967791008        1.57650844188242
H            2.58801975091624        1.85348453960654       -0.05765718171477
H            4.88328515499066        1.05150939958075       -0.61096419130050
H            5.05555918565237        0.41015687272132        1.02298462937231
H            4.76204721945893        2.71589372538146        1.94277691561157
H            4.62697298717945        3.34148638394454        0.29978123010491
H            7.06969004751474        1.90597817406277        1.45039352167063
H            6.93389473273988        3.64215736365084        1.16561829927408
H            6.93577896109463        2.52102182021294       -0.19751001970758
