  21
        -22.49761299
 N         -1.8860466945       -0.0000270747        0.7705107121
 C         -1.0950415995       -0.0000306575       -0.5005046119
 C         -0.2305554763        1.2739803995       -0.6352166321
 C          0.9726274795        1.2703540416        0.3244683958
 C          1.8242965555        0.0000755514        0.1579896077
 C          0.9728212673       -1.2702845818        0.3244465276
 C         -0.2305055637       -1.2740478557       -0.6351408975
 H         -2.4921563719        0.8302333132        0.8351604162
 H         -1.2726102591       -0.0001676898        1.5959736950
 H         -2.4923773573       -0.8301702873        0.8350569253
 H         -1.8290385421       -0.0000627893       -1.3278134375
 H         -0.8543793290        2.1586924388       -0.4570127681
 H          0.1269897844        1.3692480152       -1.6673527067
 H          0.6210489916        1.3439278955        1.3599593502
 H          1.5892593820        2.1662396827        0.1672092288
 H          2.6605861791        0.0001303388        0.8706015146
 H          2.2896854175        0.0001148460       -0.8351140031
 H          0.6214094410       -1.3440568455        1.3599472928
 H          1.5895764685       -2.1660745668        0.1669667202
 H         -0.8543048233       -2.1587111751       -0.4566631371
 H          0.1268777532       -1.3695257919       -1.6672956497
  21
        -22.49669115
 N         -2.4293832316       -0.0001141897        0.1008000860
 C         -0.9873175637       -0.0000009688       -0.3074731528
 C         -0.2612214089        1.2658223743        0.1881694784
 C          1.2206692719        1.2716408499       -0.2307428003
 C          1.9449872707        0.0000652645        0.2482548864
 C          1.2207757443       -1.2715587876       -0.2307021231
 C         -0.2611351325       -1.2658034558        0.1882278827
 H         -2.5189734273        0.0006059786        1.1259141896
 H         -2.9217021766       -0.8317739568       -0.2543220447
 H         -2.9222276893        0.8307452637       -0.2557988459
 H         -0.9512963938       -0.0000279461       -1.4100002889
 H         -0.3370071786        1.3110044600        1.2796625405
 H         -0.7765609843        2.1625667610       -0.1779872133
 H          1.7249276318        2.1696910861        0.1516847965
 H          1.2913986089        1.3425787181       -1.3226483739
 H          1.9975381803        0.0000798480        1.3434887612
 H          2.9894898507        0.0001103908       -0.0927289947
 H          1.7251041246       -2.1694214832        0.1519231206
 H          1.2916380702       -1.3429132386       -1.3225844060
 H         -0.3368929127       -1.3110668838        1.2797374460
 H         -0.7764203361       -2.1625616886       -0.1779556255
  21
        -22.48950957
 N         -1.8313221589        0.1386973279        0.8419969558
 C         -1.1029451152       -0.0384844205       -0.4538602216
 C         -0.1990185902        1.1780189487       -0.7610029408
 C          0.9917956183        1.3090133731        0.2199829213
 C          1.5380649021       -0.0577742552        0.7075188885
 C          1.2220330110       -1.1879557702       -0.2867603790
 C         -0.3022300657       -1.3740194835       -0.4752895910
 H         -2.3812944591        1.0095055140        0.8466157899
 H         -1.1783525547        0.1801608006        1.6354380539
 H         -2.4842311234       -0.6386524800        1.0171258818
 H         -1.8780840793       -0.0936815042       -1.2398725852
 H         -0.8026063611        2.0935911013       -0.7450987652
 H          0.1777738345        1.0953813932       -1.7872285284
 H          0.6964753663        1.9212668813        1.0807964818
 H          1.8004848479        1.8727090932       -0.2625529305
 H          1.0989748964       -0.3087518989        1.6798624703
 H          2.6191702140        0.0025187970        0.8912148961
 H          1.6873317523       -2.1277469442        0.0399120967
 H          1.6862376610       -0.9572197550       -1.2529291704
 H         -0.6903163046       -2.0263171612        0.3141939685
 H         -0.4956670119       -1.9100436792       -1.4129527727
  21
        -22.48860847
 N         -2.2474237975       -0.1688205751        0.4713087784
 C         -1.0662263272        0.0808901156       -0.4153678990
 C         -0.2472226771        1.2989576617        0.0877924513
 C          1.2215573474        1.2368846604       -0.3698074249
 C          1.9476474161       -0.0073273426        0.2017807990
 C          0.9882015791       -1.2004820409        0.4425427628
 C         -0.1918879835       -1.1978016986       -0.5470898565
 H         -1.9474780762       -0.4358660564        1.4187529555
 H         -2.8408067768       -0.9273583639        0.1066949977
 H         -2.8361770514        0.6718683854        0.5560518708
 H         -1.4606750081        0.3310497262       -1.4154812805
 H         -0.2846371401        1.3142256768        1.1817327695
 H         -0.7182602503        2.2368915995       -0.2320914749
 H          1.7521518370        2.1571945429       -0.0919193753
 H          1.2504015483        1.2067403614       -1.4654428051
 H          2.4511104546        0.2588652146        1.1395124203
 H          2.7525475378       -0.3129263469       -0.4783645412
 H          0.5961113628       -1.1545724327        1.4650896556
 H          1.5348022009       -2.1512650175        0.3863993075
 H         -0.8188802461       -2.0848935648       -0.4003317817
 H          0.1977148817       -1.2797716171       -1.5684487513
