  16
  -24.327328340000001        9.2450201336327573E-002 !gc
 N          0.5695671653       -1.4834762805        0.0155444476
 C         -0.5918243967       -0.6414536698        0.0061512439
 C         -0.4642044240        0.7380195881        0.0154179960
 C         -1.5835938250        1.5477515362        0.0093848007
 C         -2.8439940079        0.9828702631       -0.0060314439
 C         -2.9813648914       -0.3914787860       -0.0150889995
 C         -1.8594744450       -1.1983384640       -0.0087471945
 Cl         3.4962067969        0.3165616430       -0.0078122979
 H          0.6341075789       -2.0991237001        0.8403491298
 H          1.4660434130       -0.9622197636        0.0082498559
 H          0.6328386326       -2.1190018469       -0.7934499368
 H          0.5223845172        1.1707969725        0.0267852974
 H         -1.4729945731        2.6209830664        0.0164518411
 H         -3.7191429387        1.6137675065       -0.0112070299
 H         -3.9646445211       -0.8355747277       -0.0268695743
 H         -1.9582360113       -2.2711726956       -0.0144774576
  16
  -24.327327369999999        9.2355354605751797E-002 !md7
 N          1.1927715410        1.0308301099       -0.0882920006
 C         -0.2280874042        0.8377131711       -0.0465644725
 C         -1.0825024794        1.9268335620       -0.0638896703
 C         -2.4520980244        1.7462729799       -0.0288821681
 C         -2.9797948203        0.4707827020        0.0234778413
 C         -2.1355991462       -0.6222117460        0.0406292240
 C         -0.7667794622       -0.4379093707        0.0055450175
 Cl         2.9566968566       -1.9119710217        0.0669470031
 H          1.5271804892        1.4958019387       -0.9458763146
 H          1.7384385716        0.1503032113       -0.0395711702
 H          1.5602266437        1.6063189549        0.6838130444
 H         -0.6633885296        2.9185598250       -0.1051159383
 H         -3.1091214804        2.6019905132       -0.0425217187
 H         -4.0489074770        0.3286902254        0.0509077928
 H         -2.5445780288       -1.6198321785        0.0815940005
 H         -0.1014190783       -1.2851178764        0.0193050058
  16
  -24.327131800000000        7.5090385014355998E-002 !md6
 N          0.5702296186       -1.4778166981        0.0237853579
 C         -0.5926078982       -0.6378645111        0.0100635344
 C         -0.4677644979        0.7418385969        0.0231518186
 C         -1.5887056582        1.5494124511        0.0142831921
 C         -2.8479313028        0.9821315518       -0.0075258350
 C         -2.9825554967       -0.3924566785       -0.0202494176
 C         -1.8591160921       -1.1971264349       -0.0112669001
 Cl         3.5011898853        0.3109520173       -0.0142754619
 H          1.4627712929       -0.9575773676        0.0120075942
 H          0.6336340098       -2.1213349351       -0.7844758061
 H          0.6362439387       -2.0879379191        0.8518849455
 H          0.5179806915        1.1763619575        0.0398788348
 H         -1.4801593908        2.6228279534        0.0244929800
 H         -3.7243269649        1.6112787820       -0.0144667411
 H         -3.9649030617       -0.8384419235       -0.0373184221
 H         -1.9558544263       -2.2701152438       -0.0211790467
  16
  -24.327120900000001        7.4229244087800406E-002 !md4
 N          1.1947978095        1.0336873851        0.0590530855
 C         -0.2262949779        0.8392222741        0.0347694477
 C         -1.0816851382        1.9266318747        0.0834919863
 C         -2.4513977710        1.7448654045        0.0617224106
 C         -2.9781759403        0.4698992617       -0.0094360470
 C         -2.1329726730       -0.6213474277       -0.0589310947
 C         -0.7640446919       -0.4358477678       -0.0370095191
 Cl         2.9520211729       -1.9141804864       -0.0549623043
 H          1.7384676122        0.1557788504        0.0246753786
 H          1.5381303452        1.5191683986        0.9063453467
 H          1.5544692939        1.5927766360       -0.7286429140
 H         -0.6632138708        2.9179591875        0.1385048140
 H         -3.1092287892        2.5992128109        0.1001817753
 H         -4.0473775156        0.3268535189       -0.0265587446
 H         -2.5412591560       -1.6185162720       -0.1150797859
 H         -0.0978741487       -1.2816540138       -0.0758592089
  16
  -24.327101389999999        7.2712464160256049E-002 !gc
 N          0.5702225307       -1.4797830177       -0.0098357458
 C         -0.5921733815       -0.6391117149       -0.0059664819
 C         -0.4662619689        0.7405534341       -0.0082363480
 C         -1.5866796255        1.5488903053       -0.0058066273
 C         -2.8464393025        0.9824144195       -0.0010049635
 C         -2.9821255867       -0.3921281104        0.0011816900
 C         -1.8591991257       -1.1975639625       -0.0014129752
 Cl         3.4990885929        0.3129362290        0.0122809151
 H          0.6360413788       -2.1000350804       -0.8310484093
 H          0.6332865871       -2.1137334339        0.8059407545
 H          1.4625005276       -0.9601368512       -0.0042244741
 H          0.5199326198        1.1743682027       -0.0120977853
 H         -1.4772583256        2.6222638664       -0.0077260517
 H         -3.7224463378        1.6121390658        0.0012646499
 H         -3.9649217677       -0.8374357277        0.0051946834
 H         -1.9568779581       -2.2705100928        0.0005825662
  16
  -24.327097360000000        7.2403040265652877E-002 !gc
 N          1.1899408653        1.0119252419        0.2510322065
 C         -0.2285449770        0.8272551370        0.1429493652
 C         -1.0862796939        1.9054537117        0.2780695780
 C         -2.4537791292        1.7321465400        0.1804083293
 C         -2.9759819216        0.4749360263       -0.0537584922
 C         -2.1284371222       -0.6070866643       -0.1896784193
 C         -0.7617446710       -0.4301063542       -0.0912739376
 Cl         2.9543758258       -1.8964003907       -0.2149688126
 H          1.4974329328        1.3659583640        1.1695152629
 H          1.5801886197        1.6820620277       -0.4345826671
 H          1.7368091675        0.1475258941        0.1094703207
 H         -0.6714897652        2.8828413749        0.4612111028
 H         -3.1134730297        2.5791878276        0.2873611932
 H         -4.0434563583        0.3385208116       -0.1301490291
 H         -2.5331172418       -1.5904509713       -0.3724905860
 H         -0.0937696567       -1.2688853057       -0.1957770645
  16
  -24.327067020000001        7.0115414273022314E-002 !mtd12
 N          1.0631377788        0.5518786861        0.9978731381
 C         -0.3028918234        0.5774897562        0.5609106536
 C         -1.1694264371        1.5514461094        1.0272410438
 C         -2.4947348336        1.5588835747        0.6359215585
 C         -2.9663261643        0.5874907108       -0.2254876740
 C         -2.1106524831       -0.3906336439       -0.6930736333
 C         -0.7861809395       -0.3949428544       -0.2997028249
 Cl         3.0853607523       -1.5293477412       -0.8350837425
 H          1.5300299231        1.4710483576        0.9721815892
 H          1.6741859084       -0.0657690992        0.4315744877
 H          1.1857748019        0.2214030510        1.9663969815
 H         -0.7957212746        2.3033721634        1.7023868618
 H         -3.1613187243        2.3231395764        1.0042959242
 H         -4.0007976779        0.5924855020       -0.5317347143
 H         -2.4762605732       -1.1515666506       -1.3650098693
 H         -0.1129140796       -1.1551949813       -0.6593641514
  16
  -24.326830370000000        5.4582911108559527E-002 !gc
 N          0.5752094494       -1.3973263924        0.2784345315
 C         -0.5999470291       -0.5875525171        0.1344767948
 C         -0.5259162290        0.7894648612        0.2654790856
 C         -1.6635315580        1.5675298709        0.1678702248
 C         -2.8893340574        0.9728036537       -0.0590625289
 C         -2.9742856811       -0.3999331600       -0.1854722034
 C         -1.8345116136       -1.1750448006       -0.0864806213
 Cl         3.5532616131        0.2289735367       -0.2186793730
 H          0.6850653428       -1.8105513285        1.2168184246
 H          1.4620660255       -0.8860787395        0.1118561965
 H          0.6155294355       -2.1990650020       -0.3680687440
 H          0.4335426428        1.2461592069        0.4432077262
 H         -1.5940604199        2.6394059971        0.2696769838
 H         -3.7784929280        1.5789676634       -0.1359368667
 H         -3.9308384841       -0.8677091198       -0.3598374395
 H         -1.8944916983       -2.2469388379       -0.1770645077
  16
  -24.326218940000000        2.8580045898719389E-002 !md1
 N          0.6287461494       -1.0959072474        0.7905423077
 C         -0.5872197202       -0.4083861178        0.4642834447
 C         -0.7522983033        0.9187257291        0.8230332223
 C         -1.9121241778        1.5964133586        0.4991312594
 C         -2.9197225536        0.9503781128       -0.1901016173
 C         -2.7638613808       -0.3725926590       -0.5546247172
 C         -1.6025243325       -1.0472056684       -0.2292424565
 Cl         3.5456731239       -0.0842512937       -0.6657195943
 H          0.8750258235       -1.0576922343        1.7913033075
 H          1.4645445982       -0.7258689835        0.3003866118
 H          0.6212376778       -2.1016882971        0.5653611990
 H          0.0393052986        1.4166555516        1.3581383946
 H         -2.0301053785        2.6302592739        0.7843720394
 H         -3.8259705547        1.4780191749       -0.4435943471
 H         -3.5487753937       -0.8796806021       -1.0940640560
 H         -1.4754953073       -2.0785856538       -0.5134351071
  16
  -24.326167430000002        2.7063911520132756E-002 !md7
 N          0.7392043168       -0.6268641535       -1.1365629282
 C         -0.5193914912       -0.1172868253       -0.6741365196
 C         -1.0353873786        1.0662157857       -1.1762192733
 C         -2.2350769302        1.5653895053       -0.7059228268
 C         -2.9296990873        0.8849233433        0.2750093134
 C         -2.4214770258       -0.2937305633        0.7847250877
 C         -1.2215649222       -0.7899793060        0.3120377591
 Cl         3.4299871337       -0.5508053121        0.9625977900
 H          0.7153342940       -1.6232681647       -1.4015767433
 H          1.5016451080       -0.5597520023       -0.4366408241
 H          1.1103116458       -0.1478498027       -1.9703517257
 H         -0.4883580015        1.5951092357       -1.9389821160
 H         -2.6286828832        2.4874471285       -1.1047164436
 H         -3.8663263864        1.2739421835        0.6429116000
 H         -2.9604689197       -0.8266206189        1.5526421510
 H         -0.8167283629       -1.7067520395        0.7075362087
  16
  -24.326166879999999        2.7048164712513822E-002 !gc
 N          0.7469459410       -0.5948908112        1.1468492272
 C         -0.5135249747       -0.0960811668        0.6777589136
 C         -1.0587778817        1.0652600532        1.2003437992
 C         -2.2630522914        1.5509532962        0.7276391198
 C         -2.9333771364        0.8788505707       -0.2757062522
 C         -2.3964221772       -0.2782396989       -0.8050037298
 C         -1.1921337271       -0.7612067238       -0.3297445581
 Cl         3.4245744159       -0.5816760733       -0.9715864937
 H          1.1251423277       -0.0919666925        1.9638792332
 H          1.5050673088       -0.5503966020        0.4404466320
 H          0.7222169101       -1.5823578398        1.4414812209
 H         -0.5309665516        1.5877428123        1.9808501833
 H         -2.6794428097        2.4558023137        1.1423773400
 H         -3.8735887507        1.2572292498       -0.6455379235
 H         -2.9166649548       -0.8050294388       -1.5898857985
 H         -0.7654910798       -1.6616100881       -0.7396757560
  16
  -24.326213220000000        2.8407576960842337E-002 !md1
 N          0.6841067310       -0.8612325814       -1.0107005482
 C         -0.5591641047       -0.2680516748       -0.6113993383
 C         -0.9104310370        0.9956217090       -1.0563664511
 C         -2.0834223825        1.5900993134       -0.6318471424
 C         -2.9156300675        0.9257229134        0.2477631484
 C         -2.5706890842       -0.3317434519        0.7029055789
 C         -1.3968875819       -0.9231557427        0.2762951389
 Cl         3.4820414454       -0.3225353540        0.8621313897
 H          0.6648190743       -1.8914907196       -1.0533393954
 H          1.4766510724       -0.6398997741       -0.3794009374
 H          1.0075658123       -0.5724299721       -1.9458208511
 H         -0.2541678566        1.5115477012       -1.7375342882
 H         -2.3482591426        2.5740287433       -0.9866388800
 H         -3.8317539490        1.3886574153        0.5799614388
 H         -3.2169158876       -0.8521162059        1.3926986043
 H         -1.1191352247       -1.9011902507        0.6327264907
  16
  -24.326211460000000        2.8354719275342319E-002 !md1
 N          0.6834849364       -0.8622584156        1.0114020716
 C         -0.5593173287       -0.2685383098        0.6114317701
 C         -0.9181324227        0.9884124141        1.0692716212
 C         -2.0905895236        1.5836543791        0.6443454691
 C         -2.9145855742        0.9268779172       -0.2486052915
 C         -2.5620065613       -0.3237222755       -0.7166273079
 C         -1.3887923777       -0.9159434949       -0.2895290984
 Cl         3.4812964314       -0.3229196595       -0.8616165259
 H          1.0070744406       -0.5732719917        1.9470206166
 H          1.4763058428       -0.6413748123        0.3802940838
 H          0.6634895835       -1.8919474881        1.0542181234
 H         -0.2682482570        1.4985056168        1.7608665653
 H         -2.3613709141        2.5622670425        1.0092103293
 H         -3.8301140251        1.3906007657       -0.5813425370
 H         -3.2017562917       -0.8380192965       -1.4169333559
 H         -1.1051022952       -1.8886628738       -0.6556989550
  16
  -24.326016460000002        2.3067979497594707E-002 !md6
 N          0.7439529107       -0.6075998451        1.1379135283
 C         -0.5162329128       -0.1041227390        0.6730905708
 C         -1.0510044603        1.0640060338        1.1913365575
 C         -2.2545714231        1.5547640836        0.7220689902
 C         -2.9345263691        0.8811096588       -0.2737301237
 C         -2.4078237602       -0.2824706539       -0.7990838500
 C         -1.2041845426       -0.7704267515       -0.3272886155
 Cl         3.4300748607       -0.5695210005       -0.9642249889
 H          1.5010245360       -0.5521266561        0.4368616781
 H          0.7199578287       -1.6035731904        1.4190553171
 H          1.1187622544       -0.1166833802        1.9630785582
 H         -0.5158059905        1.5874169867        1.9661738709
 H         -2.6628325326        2.4648018499        1.1335247688
 H         -3.8742381842        1.2634103747       -0.6407961901
 H         -2.9354928996       -0.8103688283       -1.5782435638
 H         -0.7852433281       -1.6756693550       -0.7344967483
  16
  -24.325969829999998        2.1957348377405799E-002 !md4
 N          0.7634759109       -0.5269402158       -1.1665783172
 C         -0.5011857202       -0.0519507677       -0.6841101055
 C         -1.0741252984        1.0990367300       -1.1999648811
 C         -2.2877972584        1.5550755795       -0.7217806329
 C         -2.9402034238        0.8629900643        0.2797971347
 C         -2.3761024176       -0.2845068122        0.8016903581
 C         -1.1624116264       -0.7377097519        0.3210985822
 Cl         3.4114928184       -0.6436275692        0.9842494299
 H          1.5108909634       -0.5250034573       -0.4530731533
 H          1.1537180539        0.0224706515       -1.9522388166
 H          0.7395376040       -1.4960436476       -1.5169510787
 H         -0.5609852427        1.6364076605       -1.9801367040
 H         -2.7256347498        2.4522926308       -1.1309773568
 H         -3.8877762280        1.2181705167        0.6538294239
 H         -2.8825032070       -0.8270796937        1.5848713518
 H         -0.7148073804       -1.6308039628        0.7246177699
  16
  -24.326001739999999        2.2711442194023903E-002 !mtd7
 N          0.8168474997       -0.3111092573       -1.2008123459
 C         -0.4634685922        0.0852751442       -0.6895693473
 C         -1.1362133520        1.1733365279       -1.2211235994
 C         -2.3786995342        1.5363799079       -0.7373356436
 C         -2.9619434095        0.8111969560        0.2832918166
 C         -2.3004398969       -0.2770711122        0.8175838008
 C         -1.0580143209       -0.6371076026        0.3315984442
 Cl         3.3715724627       -0.8344186300        1.0058994911
 H          1.2407937543        0.3647578528       -1.8542344496
 H          0.8004181580       -1.2038583474       -1.7244517740
 H          1.5351171421       -0.4487828785       -0.4715954322
 H         -0.6785135380        1.7346063356       -2.0187799640
 H         -2.8933396418        2.3864492327       -1.1576629771
 H         -3.9319906713        1.0936514446        0.6616734549
 H         -2.7537828979       -0.8467253089        1.6139371686
 H         -0.5367403589       -1.4861626620        0.7416577477
  16
  -24.325985119999999        2.2315503489091833E-002 !md5
 N          0.6329002333       -1.0816875823       -0.8039871951
 C         -0.5852806719       -0.3999710315       -0.4739006060
 C         -0.7562876606        0.9275260692       -0.8284062305
 C         -1.9177498862        1.5999371211       -0.4993888774
 C         -2.9209107316        0.9483127560        0.1911007070
 C         -2.7589044493       -0.3750162669        0.5516804457
 C         -1.5959991522       -1.0443747810        0.2211402834
 Cl         3.5428206983       -0.0978461852        0.6813212343
 H          1.4626644150       -0.7209302874       -0.3049254971
 H          0.8857562209       -1.0270916891       -1.8063122741
 H          0.6243527226       -2.0910921707       -0.5956432429
 H          0.0320010101        1.4301286896       -1.3640296180
 H         -2.0406048975        2.6342359546       -0.7809441984
 H         -3.8283492373        1.4719116836        0.4486837702
 H         -3.5404636334       -0.8865879429        1.0917619462
 H         -1.4641817178       -2.0759504580        0.5024326032
  16
  -24.325958889999999        2.1704621493991636E-002 !md6
 N          0.6722485763       -0.9141728042       -0.9728688582
 C         -0.5658778049       -0.3006830349       -0.5884885391
 C         -0.8764037940        0.9792875391       -1.0165505019
 C         -2.0448835927        1.5936385533       -0.6082420446
 C         -2.9135247847        0.9326866850        0.2381046139
 C         -2.6094508469       -0.3412335029        0.6763423538
 C         -1.4399473128       -0.9524708020        0.2661354661
 Cl         3.4927136719       -0.2696276005        0.8301137129
 H          1.4699273248       -0.6619209993       -0.3664337160
 H          0.9842944762       -0.6717410918       -1.9296765708
 H          0.6530930041       -1.9447337331       -0.9636876700
 H         -0.1915443288        1.4919348767       -1.6715625060
 H         -2.2776717283        2.5903448202       -0.9495973521
 H         -3.8260961267        1.4111780763        0.5578057237
 H         -3.2842213773       -0.8589320483        1.3403429557
 H         -1.1943685445       -1.9435663474        0.6098597146
  16
  -24.325948499999999        2.1467293955429977E-002 !gc
 N          0.6634443723       -0.9487331315        0.9446084030
 C         -0.5708499709       -0.3216703568        0.5698560936
 C         -0.8602799492        0.9634833050        0.9970144862
 C         -2.0260801569        1.5908437662        0.6010473929
 C         -2.9133400443        0.9376326550       -0.2318652201
 C         -2.6306225470       -0.3416091410       -0.6689070935
 C         -1.4636974230       -0.9658367472       -0.2710716449
 Cl         3.5023259390       -0.2356246708       -0.8035331000
 H          1.4673646724       -0.6748913791        0.3560759834
 H          0.6451112803       -1.9826383551        0.8974681372
 H          0.9636301423       -0.7421897995        1.9088448622
 H         -0.1610354333        1.4697800278        1.6416853299
 H         -2.2420811442        2.5916687743        0.9413710970
 H         -3.8237314582        1.4263483529       -0.5421768846
 H         -3.3201035375       -0.8533443682       -1.3223285295
 H         -1.2353487273       -1.9613839587       -0.6137830441
  16
  -24.325925260000002        2.0945799339900241E-002 !gc
 N          0.7009841156       -0.7908883080       -1.0566946998
 C         -0.5476068464       -0.2235418631       -0.6368287542
 C         -0.9519267138        1.0167414766       -1.1024343607
 C         -2.1318244209        1.5837005654       -0.6597503773
 C         -2.9176440324        0.9152717526        0.2586168842
 C         -2.5196181106       -0.3187472984        0.7341300957
 C         -1.3392047089       -0.8827659220        0.2891262755
 Cl         3.4639516474       -0.3924794149        0.9000581184
 H          1.0401506458       -0.4401901462       -1.9652946351
 H          0.6795936871       -1.8195937707       -1.1702175006
 H          1.4805678489       -0.6165876673       -0.4021963401
 H         -0.3320302201        1.5364864685       -1.8140639017
 H         -2.4383511551        2.5493945335       -1.0307098890
 H         -3.8389130304        1.3569590002        0.6052034368
 H         -3.1292777677       -0.8419712902        1.4543790879
 H         -1.0196008081       -1.8421613981        0.6608465261
  16
  -24.325921279999999        2.0857769192020481E-002 !md3
 N          0.6912908769       -0.8296487813        1.0317284101
 C         -0.5542149891       -0.2478921562        0.6226450756
 C         -0.9373643311        0.9983981555        1.0899609290
 C         -2.1133810862        1.5808283193        0.6571543585
 C         -2.9164478293        0.9219982284       -0.2531908424
 C         -2.5394974699       -0.3178913570       -0.7306015995
 C         -1.3629208369       -0.8974066867       -0.2954355899
 Cl         3.4742572110       -0.3553508753       -0.8787599411
 H          0.6713191175       -1.8582173941        1.1043949395
 H          1.0219538463       -0.5131656415        1.9601821298
 H          1.4768646976       -0.6281201676        0.3923878351
 H         -0.3040425607        1.5103240435        1.7954220847
 H         -2.4034340351        2.5510315876        1.0295920026
 H         -3.8347777828        1.3756985144       -0.5919670488
 H         -3.1627422204       -0.8337748986       -1.4444937199
 H         -1.0601050721       -1.8616748948       -0.6685938872
  16
  -24.325917260000001        2.0769229879442856E-002 !md6
 N          0.6209431491       -1.1324364303        0.7478254082
 C         -0.5896603522       -0.4297615043        0.4340154689
 C         -0.7247578064        0.9056556443        0.7739490084
 C         -1.8829428415        1.5955734133        0.4706950513
 C         -2.9193291525        0.9533022606       -0.1781938713
 C         -2.7940562410       -0.3783071650       -0.5225344714
 C         -1.6343850185       -1.0652432892       -0.2176262866
 Cl         3.5522952404       -0.0463993391       -0.6271019878
 H          1.4613052034       -0.7430320801        0.2896674172
 H          0.6170140592       -2.1310962411        0.4756567398
 H          0.8508908535       -1.1399869279        1.7525903706
 H          0.0888804805        1.4002870351        1.2781738879
 H         -1.9771446996        2.6360065710        0.7404038645
 H         -3.8241824397        1.4905827120       -0.4159249523
 H         -3.6017017551       -0.8826467542       -1.0300507861
 H         -1.5318333790       -2.1038047727       -0.4850413124
  16
  -24.325890340000001        2.0185932553558866E-002 !md3
 N          0.6360800221       -1.0687663501        0.8289186195
 C         -0.5842369883       -0.3936275340        0.4934278922
 C         -0.7745989091        0.9253852810        0.8692285374
 C         -1.9332755087        1.5951209267        0.5252903820
 C         -2.9140614683        0.9493990976       -0.2018645193
 C         -2.7323245474       -0.3651166299       -0.5845800861
 C         -1.5721484144       -1.0317272233       -0.2391661847
 Cl         3.5321625130       -0.1124553911       -0.7014994406
 H          0.6247738800       -2.0832479387        0.6439702346
 H          0.8976741258       -0.9916315182        1.8275216320
 H          1.4613822208       -0.7201310136        0.3151990446
 H         -0.0031921688        1.4237574717        1.4326786845
 H         -2.0710486949        2.6226801249        0.8240493660
 H         -3.8192726820        1.4709231216       -0.4712140046
 H         -3.4959399372       -0.8716781996       -1.1542384686
 H         -1.4242928869       -2.0560596595       -0.5383878720
  16
  -24.325882700000001        2.0023395101006848E-002 !md4
 N          0.7495775374       -0.5865281048       -1.1517645284
 C         -0.5116217155       -0.0914101039       -0.6807779643
 C         -1.0527099542        1.0777266723       -1.1901318535
 C         -2.2571735093        1.5601568005       -0.7146128168
 C         -2.9318587251        0.8769560004        0.2782479766
 C         -2.3991362054       -0.2880621534        0.7942806576
 C         -1.1945737398       -0.7677096019        0.3163183466
 Cl         3.4197000440       -0.5884026965        0.9744751545
 H          1.1281201494       -0.0789187909       -1.9657263028
 H          0.7256419438       -1.5765246434       -1.4532965745
 H          1.5037529791       -0.5464967833       -0.4473407839
 H         -0.5216426891        1.6086589116       -1.9626835573
 H         -2.6702820769        2.4712700989       -1.1187871038
 H         -3.8721339876        1.2529057685        0.6503937372
 H         -2.9228102088       -0.8235217414        1.5709689290
 H         -0.7712109990       -1.6743453351        0.7157799628
  16
  -24.325909540000001        2.0600251707255886E-002 !md8
 N          0.7388641414       -0.6291119580        1.1340593631
 C         -0.5188643123       -0.1174291065        0.6715548285
 C         -1.0426691686        1.0565832849        1.1876630683
 C         -2.2431233651        1.5560629474        0.7196356934
 C         -2.9306475422        0.8855363728       -0.2730676300
 C         -2.4145766004       -0.2835871392       -0.7966580247
 C         -1.2140264075       -0.7802919123       -0.3261375453
 Cl         3.4307546591       -0.5502066406       -0.9611954403
 H          0.7137659442       -1.6260116074        1.3971366291
 H          1.1108517782       -0.1503884502        1.9730325693
 H          1.4989459511       -0.5613786389        0.4381750246
 H         -0.5014644246        1.5775114732        1.9599991948
 H         -2.6430059230        2.4704705679        1.1296270976
 H         -3.8678858620        1.2747176593       -0.6392200810
 H         -2.9480479135       -0.8088753922       -1.5736253500
 H         -0.8030856960       -1.6896089545       -0.7324163947
