  16
        -24.32732834
 N          0.5695671653       -1.4834762805        0.0155444476
 C         -0.5918243967       -0.6414536698        0.0061512439
 C         -0.4642044240        0.7380195881        0.0154179960
 C         -1.5835938250        1.5477515362        0.0093848007
 C         -2.8439940079        0.9828702631       -0.0060314439
 C         -2.9813648914       -0.3914787860       -0.0150889995
 C         -1.8594744450       -1.1983384640       -0.0087471945
 Cl         3.4962067969        0.3165616430       -0.0078122979
 H          0.6341075789       -2.0991237001        0.8403491298
 H          1.4660434130       -0.9622197636        0.0082498559
 H          0.6328386326       -2.1190018469       -0.7934499368
 H          0.5223845172        1.1707969725        0.0267852974
 H         -1.4729945731        2.6209830664        0.0164518411
 H         -3.7191429387        1.6137675065       -0.0112070299
 H         -3.9646445211       -0.8355747277       -0.0268695743
 H         -1.9582360113       -2.2711726956       -0.0144774576
  16
        -24.32713180
 N          0.5702296186       -1.4778166981        0.0237853579
 C         -0.5926078982       -0.6378645111        0.0100635344
 C         -0.4677644979        0.7418385969        0.0231518186
 C         -1.5887056582        1.5494124511        0.0142831921
 C         -2.8479313028        0.9821315518       -0.0075258350
 C         -2.9825554967       -0.3924566785       -0.0202494176
 C         -1.8591160921       -1.1971264349       -0.0112669001
 Cl         3.5011898853        0.3109520173       -0.0142754619
 H          1.4627712929       -0.9575773676        0.0120075942
 H          0.6336340098       -2.1213349351       -0.7844758061
 H          0.6362439387       -2.0879379191        0.8518849455
 H          0.5179806915        1.1763619575        0.0398788348
 H         -1.4801593908        2.6228279534        0.0244929800
 H         -3.7243269649        1.6112787820       -0.0144667411
 H         -3.9649030617       -0.8384419235       -0.0373184221
 H         -1.9558544263       -2.2701152438       -0.0211790467
  16
        -24.32706702
 N          1.0631377788        0.5518786861        0.9978731381
 C         -0.3028918234        0.5774897562        0.5609106536
 C         -1.1694264371        1.5514461094        1.0272410438
 C         -2.4947348336        1.5588835747        0.6359215585
 C         -2.9663261643        0.5874907108       -0.2254876740
 C         -2.1106524831       -0.3906336439       -0.6930736333
 C         -0.7861809395       -0.3949428544       -0.2997028249
 Cl         3.0853607523       -1.5293477412       -0.8350837425
 H          1.5300299231        1.4710483576        0.9721815892
 H          1.6741859084       -0.0657690992        0.4315744877
 H          1.1857748019        0.2214030510        1.9663969815
 H         -0.7957212746        2.3033721634        1.7023868618
 H         -3.1613187243        2.3231395764        1.0042959242
 H         -4.0007976779        0.5924855020       -0.5317347143
 H         -2.4762605732       -1.1515666506       -1.3650098693
 H         -0.1129140796       -1.1551949813       -0.6593641514
  16
        -24.32683037
 N          0.5752094494       -1.3973263924        0.2784345315
 C         -0.5999470291       -0.5875525171        0.1344767948
 C         -0.5259162290        0.7894648612        0.2654790856
 C         -1.6635315580        1.5675298709        0.1678702248
 C         -2.8893340574        0.9728036537       -0.0590625289
 C         -2.9742856811       -0.3999331600       -0.1854722034
 C         -1.8345116136       -1.1750448006       -0.0864806213
 Cl         3.5532616131        0.2289735367       -0.2186793730
 H          0.6850653428       -1.8105513285        1.2168184246
 H          1.4620660255       -0.8860787395        0.1118561965
 H          0.6155294355       -2.1990650020       -0.3680687440
 H          0.4335426428        1.2461592069        0.4432077262
 H         -1.5940604199        2.6394059971        0.2696769838
 H         -3.7784929280        1.5789676634       -0.1359368667
 H         -3.9308384841       -0.8677091198       -0.3598374395
 H         -1.8944916983       -2.2469388379       -0.1770645077
  16
        -24.32621894
 N          0.6287461494       -1.0959072474        0.7905423077
 C         -0.5872197202       -0.4083861178        0.4642834447
 C         -0.7522983033        0.9187257291        0.8230332223
 C         -1.9121241778        1.5964133586        0.4991312594
 C         -2.9197225536        0.9503781128       -0.1901016173
 C         -2.7638613808       -0.3725926590       -0.5546247172
 C         -1.6025243325       -1.0472056684       -0.2292424565
 Cl         3.5456731239       -0.0842512937       -0.6657195943
 H          0.8750258235       -1.0576922343        1.7913033075
 H          1.4645445982       -0.7258689835        0.3003866118
 H          0.6212376778       -2.1016882971        0.5653611990
 H          0.0393052986        1.4166555516        1.3581383946
 H         -2.0301053785        2.6302592739        0.7843720394
 H         -3.8259705547        1.4780191749       -0.4435943471
 H         -3.5487753937       -0.8796806021       -1.0940640560
 H         -1.4754953073       -2.0785856538       -0.5134351071
  16
        -24.32621322
 N          0.6841067310       -0.8612325814       -1.0107005482
 C         -0.5591641047       -0.2680516748       -0.6113993383
 C         -0.9104310370        0.9956217090       -1.0563664511
 C         -2.0834223825        1.5900993134       -0.6318471424
 C         -2.9156300675        0.9257229134        0.2477631484
 C         -2.5706890842       -0.3317434519        0.7029055789
 C         -1.3968875819       -0.9231557427        0.2762951389
 Cl         3.4820414454       -0.3225353540        0.8621313897
 H          0.6648190743       -1.8914907196       -1.0533393954
 H          1.4766510724       -0.6398997741       -0.3794009374
 H          1.0075658123       -0.5724299721       -1.9458208511
 H         -0.2541678566        1.5115477012       -1.7375342882
 H         -2.3482591426        2.5740287433       -0.9866388800
 H         -3.8317539490        1.3886574153        0.5799614388
 H         -3.2169158876       -0.8521162059        1.3926986043
 H         -1.1191352247       -1.9011902507        0.6327264907
  16
        -24.32601646
 N          0.7439529107       -0.6075998451        1.1379135283
 C         -0.5162329128       -0.1041227390        0.6730905708
 C         -1.0510044603        1.0640060338        1.1913365575
 C         -2.2545714231        1.5547640836        0.7220689902
 C         -2.9345263691        0.8811096588       -0.2737301237
 C         -2.4078237602       -0.2824706539       -0.7990838500
 C         -1.2041845426       -0.7704267515       -0.3272886155
 Cl         3.4300748607       -0.5695210005       -0.9642249889
 H          1.5010245360       -0.5521266561        0.4368616781
 H          0.7199578287       -1.6035731904        1.4190553171
 H          1.1187622544       -0.1166833802        1.9630785582
 H         -0.5158059905        1.5874169867        1.9661738709
 H         -2.6628325326        2.4648018499        1.1335247688
 H         -3.8742381842        1.2634103747       -0.6407961901
 H         -2.9354928996       -0.8103688283       -1.5782435638
 H         -0.7852433281       -1.6756693550       -0.7344967483
  16
        -24.32598512
 N          0.6329002333       -1.0816875823       -0.8039871951
 C         -0.5852806719       -0.3999710315       -0.4739006060
 C         -0.7562876606        0.9275260692       -0.8284062305
 C         -1.9177498862        1.5999371211       -0.4993888774
 C         -2.9209107316        0.9483127560        0.1911007070
 C         -2.7589044493       -0.3750162669        0.5516804457
 C         -1.5959991522       -1.0443747810        0.2211402834
 Cl         3.5428206983       -0.0978461852        0.6813212343
 H          1.4626644150       -0.7209302874       -0.3049254971
 H          0.8857562209       -1.0270916891       -1.8063122741
 H          0.6243527226       -2.0910921707       -0.5956432429
 H          0.0320010101        1.4301286896       -1.3640296180
 H         -2.0406048975        2.6342359546       -0.7809441984
 H         -3.8283492373        1.4719116836        0.4486837702
 H         -3.5404636334       -0.8865879429        1.0917619462
 H         -1.4641817178       -2.0759504580        0.5024326032
  16
        -24.32595889
 N          0.6722485763       -0.9141728042       -0.9728688582
 C         -0.5658778049       -0.3006830349       -0.5884885391
 C         -0.8764037940        0.9792875391       -1.0165505019
 C         -2.0448835927        1.5936385533       -0.6082420446
 C         -2.9135247847        0.9326866850        0.2381046139
 C         -2.6094508469       -0.3412335029        0.6763423538
 C         -1.4399473128       -0.9524708020        0.2661354661
 Cl         3.4927136719       -0.2696276005        0.8301137129
 H          1.4699273248       -0.6619209993       -0.3664337160
 H          0.9842944762       -0.6717410918       -1.9296765708
 H          0.6530930041       -1.9447337331       -0.9636876700
 H         -0.1915443288        1.4919348767       -1.6715625060
 H         -2.2776717283        2.5903448202       -0.9495973521
 H         -3.8260961267        1.4111780763        0.5578057237
 H         -3.2842213773       -0.8589320483        1.3403429557
 H         -1.1943685445       -1.9435663474        0.6098597146
  16
        -24.32591726
 N          0.6209431491       -1.1324364303        0.7478254082
 C         -0.5896603522       -0.4297615043        0.4340154689
 C         -0.7247578064        0.9056556443        0.7739490084
 C         -1.8829428415        1.5955734133        0.4706950513
 C         -2.9193291525        0.9533022606       -0.1781938713
 C         -2.7940562410       -0.3783071650       -0.5225344714
 C         -1.6343850185       -1.0652432892       -0.2176262866
 Cl         3.5522952404       -0.0463993391       -0.6271019878
 H          1.4613052034       -0.7430320801        0.2896674172
 H          0.6170140592       -2.1310962411        0.4756567398
 H          0.8508908535       -1.1399869279        1.7525903706
 H          0.0888804805        1.4002870351        1.2781738879
 H         -1.9771446996        2.6360065710        0.7404038645
 H         -3.8241824397        1.4905827120       -0.4159249523
 H         -3.6017017551       -0.8826467542       -1.0300507861
 H         -1.5318333790       -2.1038047727       -0.4850413124
  16
        -24.32588270
 N          0.7495775374       -0.5865281048       -1.1517645284
 C         -0.5116217155       -0.0914101039       -0.6807779643
 C         -1.0527099542        1.0777266723       -1.1901318535
 C         -2.2571735093        1.5601568005       -0.7146128168
 C         -2.9318587251        0.8769560004        0.2782479766
 C         -2.3991362054       -0.2880621534        0.7942806576
 C         -1.1945737398       -0.7677096019        0.3163183466
 Cl         3.4197000440       -0.5884026965        0.9744751545
 H          1.1281201494       -0.0789187909       -1.9657263028
 H          0.7256419438       -1.5765246434       -1.4532965745
 H          1.5037529791       -0.5464967833       -0.4473407839
 H         -0.5216426891        1.6086589116       -1.9626835573
 H         -2.6702820769        2.4712700989       -1.1187871038
 H         -3.8721339876        1.2529057685        0.6503937372
 H         -2.9228102088       -0.8235217414        1.5709689290
 H         -0.7712109990       -1.6743453351        0.7157799628
