18
 energy: -29.265274477155 gnorm: 0.000611287443 xtb: 6.5.1 (fef0646)
N            0.97834197920698        0.33411580999566       -0.24118911678295
C            2.43399239265979        0.24665850253297       -0.24798544917340
C            3.11179647594464        1.29958237004553       -1.12785291554768
C            4.63116129206066        1.16579143041045       -1.10084151240959
C            5.29493847014840        2.19160846068999       -2.00416808501068
O            6.63998561781036        2.14733246623539       -2.00646251278506
O            4.70454254302947        2.98356507772662       -2.67530987714513
Cl          -0.02456523911102       -1.82490718938609        1.49630303466527
H            0.41434043831815       -0.82194386943833        0.69246963089015
H            0.60713813724365        0.21551902472024       -1.17808595971384
H            0.67315680233425        1.23612865554867        0.10972796376444
H            2.69933864739624       -0.75556144685975       -0.59340606345638
H            2.77295592758910        0.34876412542315        0.78589508138923
H            2.83775132580408        2.30069962872307       -0.78760799401683
H            2.76707943122369        1.19974567587797       -2.15944390029853
H            4.92537055485174        0.16663752300948       -1.43649864876792
H            5.00338091836291        1.30229647517065       -0.08123794044507
H            6.99812428512649        1.46498727957591       -1.42398573516315
