  19
        -24.26157331
 N          0.3815165618       -1.7983021167       -0.0052872270
 C          1.5437440843       -0.8654264003       -0.0056955223
 C          1.5017607440        0.0751143925       -1.2298647125
 C          0.8313533343        1.3859355539       -0.7601672353
 C          0.7741678135        1.3419776753        0.7858894658
 C          1.5131352885        0.0628698932        1.2276947927
 Cl        -2.5776047921        0.0464172620       -0.0043188136
 H          0.3791817563       -2.4013149010       -0.8431668517
 H         -0.5050860097       -1.2612060926       -0.0013145907
 H          0.3839056408       -2.4067160619        0.8285247385
 H          2.4715379359       -1.4604325948       -0.0125949637
 H          0.9511961895       -0.3910044467       -2.0550284322
 H          2.5163417155        0.2674760740       -1.6003410453
 H         -0.1766925205        1.4818483448       -1.1836040040
 H          1.3889639463        2.2625620026       -1.1138564103
 H         -0.2669450347        1.3189825272        1.1316544219
 H          1.2203387190        2.2395783323        1.2337586403
 H          1.0130882420       -0.4281518382        2.0708511454
 H          2.5323882119        0.2971687228        1.5577114704
