  19
  -24.261573309999999       0.25774358935752095      !input
 N          0.3815165618       -1.7983021167       -0.0052872270
 C          1.5437440843       -0.8654264003       -0.0056955223
 C          1.5017607440        0.0751143925       -1.2298647125
 C          0.8313533343        1.3859355539       -0.7601672353
 C          0.7741678135        1.3419776753        0.7858894658
 C          1.5131352885        0.0628698932        1.2276947927
 Cl        -2.5776047921        0.0464172620       -0.0043188136
 H          0.3791817563       -2.4013149010       -0.8431668517
 H         -0.5050860097       -1.2612060926       -0.0013145907
 H          0.3839056408       -2.4067160619        0.8285247385
 H          2.4715379359       -1.4604325948       -0.0125949637
 H          0.9511961895       -0.3910044467       -2.0550284322
 H          2.5163417155        0.2674760740       -1.6003410453
 H         -0.1766925205        1.4818483448       -1.1836040040
 H          1.3889639463        2.2625620026       -1.1138564103
 H         -0.2669450347        1.3189825272        1.1316544219
 H          1.2203387190        2.2395783323        1.2337586403
 H          1.0130882420       -0.4281518382        2.0708511454
 H          2.5323882119        0.2971687228        1.5577114704
  19
  -24.260659260000001        9.7975971142148219E-002 !md6
 N          0.3930977247       -1.8508866697       -0.0112864296
 C          1.4546483726       -0.8053559097        0.0226474704
 C          1.3563331393        0.1270260317       -1.2112000296
 C          0.8524431071        1.4890956875       -0.6994541238
 C          1.2546776849        1.5553878708        0.7837430142
 C          1.3095738812        0.0957359748        1.2769390859
 Cl        -2.6107029884       -0.1075062426       -0.0623954645
 H          0.4753247039       -2.4492562805       -0.8484525243
 H         -0.5404385497       -1.4008181195       -0.0343026286
 H          0.4312628223       -2.4567065264        0.8235509135
 H          2.4379062560       -1.3024452735        0.0329569197
 H          0.6813592441       -0.3002197376       -1.9615785803
 H          2.3341114304        0.2340713692       -1.6967871975
 H         -0.2376983007        1.5574102977       -0.8016678735
 H          1.2712042259        2.3238992848       -1.2764752689
 H          0.5521054962        2.1595035940        1.3724109916
 H          2.2370881328        2.0325547290        0.8894574074
 H          0.3855780753       -0.1674361304        1.8040019783
 H          2.1268075229       -0.0653855745        1.9907519208
  19
  -24.260621539999999        9.4142269816510915E-002 !md1
 N          0.3944354543       -1.8519125279       -0.0174594958
 C          1.4534557114       -0.8033438225       -0.0287653469
 C          1.3131570632        0.1173993552       -1.2684446199
 C          1.2621875335        1.5690819508       -0.7526944288
 C          0.8508059695        1.4810671566        0.7268461059
 C          1.3463567586        0.1089035547        1.2201798370
 Cl        -2.6106890591       -0.1113980128        0.0484119948
 H          0.4383267434       -2.4438078998       -0.8620845829
 H         -0.5402879085       -1.4044728627        0.0082948127
 H          0.4739954743       -2.4637403592        0.8100432519
 H          2.4380931420       -1.2976177657       -0.0417914910
 H          0.3892202435       -0.1343212509       -1.8006685838
 H          2.1309927958       -0.0353105974       -1.9838547922
 H          0.5657753347        2.1858169067       -1.3358476162
 H          2.2471586028        2.0430505220       -0.8450778162
 H         -0.2395202694        1.5521523040        0.8235662097
 H          1.2694338974        2.3052184263        1.3196104587
 H          0.6631244542       -0.3290635495        1.9571337696
 H          2.3196336217        0.2047277643        1.7163997316
  19
  -24.260607140000001        9.2718603833669061E-002 !md4
 N          0.3925522991       -1.8471375870       -0.0135320826
 C          1.4634250351       -0.8106192100       -0.0273729713
 C          1.3301454948        0.1099131518       -1.2685051102
 C          1.2290745718        1.5598100635       -0.7525747532
 C          0.8276677321        1.4608892294        0.7291400485
 C          1.3655277615        0.1042394823        1.2194150370
 Cl        -2.6056416014       -0.0944850668        0.0454829250
 H         -0.5337203378       -1.3909825334        0.0112139550
 H          0.4652582618       -2.4604705506        0.8183873176
 H          0.4293816230       -2.4412903144       -0.8567710706
 H          2.4420864542       -1.3166876171       -0.0400487616
 H          0.4274751785       -0.1651210078       -1.8251756718
 H          2.1699101976       -0.0193130440       -1.9628256970
 H          0.5089194157        2.1507662986       -1.3335414872
 H          2.1958857941        2.0689895147       -0.8496719273
 H         -0.2636864211        1.4998925276        0.8319780301
 H          1.2253848533        2.2970369907        1.3195075073
 H          0.7101156778       -0.3448534776        1.9747453359
 H          2.3481882486        0.2258351261        1.6908566489
  19
  -24.260453179999999        7.8779236286857915E-002 !md4
 N          0.3956326539       -1.8550840846       -0.0207327901
 C          1.4572452351       -0.8098345115        0.0216990390
 C          1.3681173004        0.1226247854       -1.2124149954
 C          0.8394962909        1.4772938965       -0.7065846448
 C          1.2263073418        1.5497495634        0.7804382608
 C          1.3015303902        0.0910756155        1.2750544024
 Cl        -2.5981381063       -0.0932777210       -0.0521504302
 H          0.4299261960       -2.4641246636        0.8120676740
 H          0.4811943663       -2.4525024796       -0.8629375165
 H         -0.5337654462       -1.4056761035       -0.0452934622
 H          2.4400993441       -1.3075201001        0.0394193184
 H          0.7109090393       -0.3115004176       -1.9745530763
 H          2.3525609223        0.2426076405       -1.6812406909
 H         -0.2504232093        1.5297148314       -0.8198097565
 H          1.2518740469        2.3178592793       -1.2798398722
 H          0.5080909305        2.1419063122        1.3622804469
 H          2.1994257439        2.0435139886        0.8952575365
 H          0.3822370588       -0.1843247089        1.8042573869
 H          2.1221303846       -0.0577528697        1.9877591268
  19
  -24.260437769999999        7.7505017851732541E-002 !md4
 N          0.3934024389       -1.8506245252       -0.0192165106
 C          1.4539734171       -0.8036019556       -0.0288005520
 C          1.3173845933        0.1170645809       -1.2690002999
 C          1.2623261054        1.5687547584       -0.7534832211
 C          0.8485143148        1.4802527899        0.7253539804
 C          1.3456991278        0.1090752535        1.2196463992
 Cl        -2.6110568110       -0.1112909284        0.0505295416
 H         -0.5372921558       -1.4036083055        0.0057845694
 H          0.4713903256       -2.4655060757        0.8110909586
 H          0.4372852702       -2.4419315581       -0.8641168125
 H          2.4378206752       -1.2994950164       -0.0397515080
 H          0.3960494397       -0.1359979079       -1.8050988823
 H          2.1384122372       -0.0344001151       -1.9810202754
 H          0.5656713755        2.1839131487       -1.3380084366
 H          2.2464292319        2.0448629406       -0.8441735048
 H         -0.2421010527        1.5493572830        0.8202086363
 H          1.2646560046        2.3052311029        1.3187230189
 H          0.6629926844       -0.3293241146        1.9568348722
 H          2.3188701161        0.2064875610        1.7157626090
  19
  -24.260381530000000        7.3027041411681010E-002 !gc
 N          0.3941651459       -1.8526235039       -0.0209357508
 C          1.4508127269       -0.8016673047       -0.0291286473
 C          1.3125287111        0.1189223435       -1.2690084541
 C          1.2706963197        1.5709007078       -0.7537625846
 C          0.8537423202        1.4856276577        0.7243649224
 C          1.3386588458        0.1102825165        1.2197858336
 Cl        -2.6109132840       -0.1152272665        0.0520416938
 H          0.4736585593       -2.4651306459        0.8062116909
 H          0.4409329266       -2.4457116690       -0.8692480896
 H         -0.5380234078       -1.4090064902        0.0037905398
 H          2.4365990960       -1.2936803777       -0.0396026073
 H          0.3857637169       -0.1278807262       -1.7986053665
 H          2.1276473557       -0.0388019124       -1.9864331465
 H          0.5806909427        2.1926928563       -1.3391636936
 H          2.2594756835        2.0374775742       -0.8429632675
 H         -0.2364351087        1.5639002744        0.8172110760
 H          1.2755722931        2.3071698350        1.3184777018
 H          0.6475493041       -0.3249457572        1.9509875064
 H          2.3084872788        0.2005418400        1.7237359176
  19
  -24.260353850000001        7.0919041766359228E-002 !md4
 N          0.3938931086       -1.8541983625       -0.0099105443
 C          1.4485958958       -0.8018026712        0.0232827959
 C          1.3457213718        0.1290895343       -1.2118029518
 C          0.8634552469        1.4988827533       -0.6988804479
 C          1.2683535999        1.5594621521        0.7838066807
 C          1.2986541983        0.0993867407        1.2765926821
 Cl        -2.6101820356       -0.1148579954       -0.0631626798
 H         -0.5388698639       -1.4114843890       -0.0334891324
 H          0.4357577843       -2.4612687350        0.8287113234
 H          0.4802108646       -2.4525453946       -0.8465439467
 H          2.4351600701       -1.2922252015        0.0345537973
 H          0.6566443663       -0.2924971970       -1.9524843236
 H          2.3183715505        0.2229291276       -1.7102610061
 H         -0.2256608686        1.5841506887       -0.7995297222
 H          1.2941200613        2.3272040577       -1.2764885156
 H          0.5764682752        2.1753812111        1.3729137219
 H          2.2588718562        2.0197273588        0.8886068134
 H          0.3643892256       -0.1522945891        1.7909779054
 H          2.1042794787       -0.0729074768        2.0009122502
  19
  -24.260316169999999        6.8146935354575194E-002 !md4
 N          0.3965872261       -1.8569865702       -0.0265839109
 C          1.4487526900       -0.8015328743       -0.0296049154
 C          1.3131904188        0.1182470530       -1.2702642719
 C          1.2735742095        1.5704694684       -0.7559549123
 C          0.8482039165        1.4868195397        0.7198514739
 C          1.3261828204        0.1101263910        1.2187484771
 Cl        -2.6055621010       -0.1131646704        0.0582733135
 H         -0.5373095567       -1.4166973812       -0.0030038230
 H          0.4766251746       -2.4734490339        0.8023579501
 H          0.4477886995       -2.4455280968       -0.8730341577
 H          2.4368012970       -1.2890475866       -0.0349670808
 H          0.3863269286       -0.1271503288       -1.8003376757
 H          2.1285528206       -0.0415677225       -1.9869509646
 H          0.5888282699        2.1943484384       -1.3453061615
 H          2.2644187511        2.0336147335       -0.8399322477
 H         -0.2422518750        1.5684754998        0.8064506690
 H          1.2691063755        2.3073273344        1.3160241271
 H          0.6271142246       -0.3243900426        1.9427758769
 H          2.2910732632        0.1980114951        1.7325306217
  19
  -24.258096810000001        6.5087725146133653E-003 !mtd5
 N         -0.2069822365       -0.6728036329        1.0789235707
 C          0.9275585758       -0.3470736210        0.1689172370
 C          0.6206314086        0.9169048677       -0.6734152859
 C          1.5374416613        2.0355745438       -0.1450667325
 C          2.7403517394        1.3242612795        0.4979250768
 C          2.2214450892       -0.0484795010        0.9701603825
 Cl        -3.0574624713       -1.2219490000       -0.8376284227
 H         -1.0726773473       -0.8581698079        0.5450166942
 H         -0.3951039324        0.1205707939        1.7166139888
 H         -0.0017271840       -1.5019024388        1.6584846131
 H          1.0961721274       -1.2046163287       -0.5021867710
 H         -0.4386935001        1.1853698277       -0.5898868788
 H          0.8112808917        0.7308859905       -1.7375651036
 H          1.0101949368        2.6419464070        0.6018464962
 H          1.8453769319        2.7239925720       -0.9428681910
 H          3.1671459849        1.9064863764        1.3249325819
 H          3.5440507926        1.1973651699       -0.2382481863
 H          1.9846883977       -0.0237764841        2.0397685180
 H          2.9722521960       -0.8376156642        0.8398674439
  19
  -24.258074140000002        6.3544897325522338E-003 !md4
 N         -0.1982018205       -0.6810665339       -1.0908361480
 C          0.9242144477       -0.3345521770       -0.1736043778
 C          2.2212500611       -0.0245090755       -0.9630487278
 C          2.7518693921        1.3265449447       -0.4462328930
 C          1.5437223088        2.0437560976        0.1800897216
 C          0.5940649330        0.9301059702        0.6612297951
 Cl        -3.0566918394       -1.2413970162        0.8125694488
 H         -0.3904542010        0.1022226514       -1.7335560934
 H         -1.0691021319       -0.8741724231       -0.5606834235
 H          0.0227109110       -1.5115942912       -1.6625398511
 H          1.0993368579       -1.1855531949        0.5040817476
 H          1.9862378525        0.0378189810       -2.0312379379
 H          2.9637838807       -0.8255107879       -0.8576417600
 H          3.2105923765        1.9196395165       -1.2482628541
 H          3.5328290813        1.1682155281        0.3076428174
 H          1.0469468733        2.6742430137       -0.5675619614
 H          1.8414177985        2.7107801772        1.0000251860
 H         -0.4580361775        1.2096435960        0.5322761704
 H          0.7342341275        0.7368221632        1.7316310127
  19
  -24.258049300000000        6.1896345593897301E-003 !md4
 N         -0.2036722806       -0.6965317607        1.0786483533
 C          0.9227187023       -0.3378917232        0.1709996501
 C          0.5988571504        0.9402344617       -0.6446315444
 C          1.5535337039        2.0424308317       -0.1475520060
 C          2.7569963792        1.3111160151        0.4714348125
 C          2.2181623175       -0.0436215749        0.9700296170
 Cl        -3.0600768535       -1.2225605844       -0.8379121090
 H          0.0134726287       -1.5367354354        1.6377153173
 H         -1.0732312893       -0.8792580965        0.5426337675
 H         -0.3964106885        0.0766420559        1.7331780243
 H          1.0985541393       -1.1784040307       -0.5194665226
 H         -0.4516733678        1.2227421758       -0.5114987640
 H          0.7378666647        0.7620646310       -1.7180957532
 H          1.0587839945        2.6658529872        0.6075467722
 H          1.8559536899        2.7183466740       -0.9580332597
 H          3.2174006657        1.8914049217        1.2816316776
 H          3.5385576163        1.1581551382       -0.2833441233
 H          1.9786420283        0.0072411521        2.0380742481
 H          2.9571659999       -0.8466366195        0.8582652953
  19
  -24.258011780000000        5.9486992204581535E-003 !md4
 N         -0.1992601957       -0.6701754921       -1.0923671393
 C          0.9262321658       -0.3405190117       -0.1726568514
 C          2.2234301606       -0.0280225495       -0.9616328001
 C          2.7412079883        1.3342734859       -0.4602102027
 C          1.5317166108        2.0399461826        0.1765761269
 C          0.6034416199        0.9166833486        0.6754271891
 Cl        -3.0527300219       -1.2391727958        0.8138601030
 H         -1.0671527364       -0.8639804339       -0.5650904068
 H          0.0168124476       -1.4982192752       -1.6765316420
 H         -0.3880450309        0.1218306773       -1.7251884863
 H          1.0968682397       -1.2002555715        0.4951005163
 H          1.9916094973        0.0182871133       -2.0313483218
 H          2.9729102252       -0.8207483757       -0.8436286646
 H          3.1821045016        1.9279627275       -1.2717245970
 H          3.5334881508        1.1921173818        0.2850524384
 H          1.0172715112        2.6592818403       -0.5684226140
 H          1.8307219749        2.7154946700        0.9890351700
 H         -0.4539458527        1.1870604441        0.5726479047
 H          0.7715602555        0.7203678781        1.7412322468
  19
  -24.257981760000000        5.7626968491058580E-003 !gc
 N         -0.2002302084       -0.6845419126       -1.0893533582
 C          0.9207242733       -0.3272065098       -0.1745245309
 C          2.2178580458       -0.0214311786       -0.9647350245
 C          2.7625693277        1.3180914418       -0.4338249255
 C          1.5580175715        2.0471247907        0.1857645389
 C          0.5878353272        0.9436357586        0.6503858306
 Cl        -3.0604431166       -1.2470200204        0.8099561574
 H         -0.3951254285        0.0927942681       -1.7384658202
 H         -1.0706733197       -0.8764456480       -0.5579990892
 H          0.0236706381       -1.5189951142       -1.6541223290
 H          1.0981415310       -1.1717934913        0.5105262431
 H          1.9798634789        0.0561143682       -2.0312537846
 H          2.9526075552       -0.8310445300       -0.8711843877
 H          3.2368855257        1.9102683256       -1.2274292384
 H          3.5340065710        1.1434939112        0.3262212727
 H          1.0775695820        2.6894291928       -0.5625176112
 H          1.8566680859        2.7047319914        1.0129165410
 H         -0.4585176862        1.2336106699        0.4996955614
 H          0.7039278491        0.7516241304        1.7238990269
  19
  -24.257845900000000        4.9910146059479535E-003 !md7
 N         -0.2020242683       -0.6746531831       -1.0915948860
 C          0.9209329087       -0.3305392499       -0.1740943369
 C          2.2191216414       -0.0244846157       -0.9630641657
 C          2.7561559656        1.3225135490       -0.4425199580
 C          1.5506174628        2.0448940184        0.1828789423
 C          0.5939632450        0.9354456719        0.6600894198
 Cl        -3.0572568629       -1.2470237625        0.8111179250
 H          0.0180133888       -1.5048193577       -1.6643517242
 H         -0.3944707476        0.1124563096       -1.7357197710
 H         -1.0695784369       -0.8671661514       -0.5634879956
 H          1.0937544152       -1.1815907586        0.5041254362
 H          1.9840289544        0.0420998846       -2.0309762998
 H          2.9578451858       -0.8293357621       -0.8602083191
 H          3.2196205667        1.9147229433       -1.2424754613
 H          3.5347755176        1.1583604344        0.3125253769
 H          1.0587324673        2.6794674437       -0.5645502331
 H          1.8502800558        2.7087868534        1.0046350694
 H         -0.4563140498        1.2200628606        0.5274692903
 H          0.7292353842        0.7410416016        1.7309164956
  19
  -24.257767690000001        4.5945820696729938E-003 !md5
 N         -0.2043378276       -0.7026388610        1.0798746431
 C          0.9182440332       -0.3327374981        0.1720461185
 C          0.5890587315        0.9516830533       -0.6319886464
 C          1.5613631937        2.0453299031       -0.1493654498
 C          2.7638842398        1.3040466474        0.4595407635
 C          2.2157624042       -0.0427139442        0.9686282880
 Cl        -3.0591228660       -1.2248980597       -0.8379913464
 H         -1.0713468576       -0.8830430729        0.5464041521
 H         -0.3987478095        0.0670282844        1.7441642582
 H          0.0171919292       -1.5468434237        1.6309240333
 H          1.0946826224       -1.1664275706       -0.5264858377
 H         -0.4564424888        1.2416349523       -0.4771481831
 H          0.7050151834        0.7767757366       -1.7087240325
 H          1.0817811428        2.6770023391        0.6086711156
 H          1.8620361801        2.7150187539       -0.9656349588
 H          3.2386401255        1.8824220382        1.2628029727
 H          3.5358681466        1.1398951952       -0.3026925082
 H          1.9768360514        0.0182584283        2.0362636763
 H          2.9485654961       -0.8521879594        0.8627229804
  19
  -24.257755400000001        4.5352154186147154E-003 !md4
 N         -0.1467783670       -0.7797732075        1.0431043579
 C          0.9427659910       -0.3576560447        0.1179030700
 C          0.5699096100        0.9495243017       -0.6268378340
 C          1.7486856325        1.9249379368       -0.4448111229
 C          2.5076196283        1.4432774823        0.8035232134
 C          2.2569261905       -0.0742960342        0.8906995970
 Cl        -3.0772611501       -1.1726208275       -0.7908434610
 H          0.0901450432       -1.6563757600        1.5341308540
 H         -1.0369404154       -0.9254666877        0.5300718239
 H         -0.3112104361       -0.0542126907        1.7571660056
 H          1.1133975773       -1.1631847419       -0.6143106222
 H         -0.3442914155        1.3649283548       -0.1887843534
 H          0.3474408643        0.7660213385       -1.6855787956
 H          1.4079588999        2.9636264926       -0.3425083300
 H          2.4059573280        1.8994597809       -1.3226739364
 H          2.1238190249        1.9469678448        1.6992166808
 H          3.5787584306        1.6791145460        0.7498037964
 H          2.1703801536       -0.4129193355        1.9296775783
 H          3.0937857587       -0.6308183374        0.4517108037
  19
  -24.257718130000001        4.3598325996370806E-003 !md2
 N         -0.1479009806       -0.7637140210        1.0479120786
 C          0.9456932307       -0.3657142029        0.1167635463
 C          0.5813369614        0.9315861662       -0.6501930707
 C          1.7405656220        1.9250754516       -0.4376127649
 C          2.4877334833        1.4448258754        0.8183913906
 C          2.2589363036       -0.0765660978        0.8877142356
 Cl        -3.0720275936       -1.1702195944       -0.7910378822
 H         -1.0347441295       -0.9130091110        0.5379336461
 H         -0.3094670687       -0.0208541513        1.7504295408
 H          0.0826581799       -1.6321838448        1.5558981371
 H          1.1118835105       -1.1858563191       -0.6001323589
 H         -0.3528211405        1.3376136721       -0.2467693768
 H          0.3972280231        0.7374061162       -1.7143698712
 H          1.3803920600        2.9567550275       -0.3312514245
 H          2.4130791498        1.9200000467       -1.3042423469
 H          2.0824136044        1.9340650743        1.7125907921
 H          3.5558159482        1.6974576983        0.7831503131
 H          2.1817995202       -0.4300947707        1.9224875168
 H          3.1012025737       -0.6150400196        0.4367361788
  19
  -24.257745809999999        4.4894243897232343E-003 !gc
 N         -0.1999790457       -0.6850357131       -1.0910531458
 C          0.9197094727       -0.3277876233       -0.1746254183
 C          2.2181837316       -0.0226670196       -0.9629333056
 C          2.7610625077        1.3183166599       -0.4337339530
 C          1.5554101525        2.0471159881        0.1839780061
 C          0.5858761734        0.9433985203        0.6493152780
 Cl        -3.0580427016       -1.2460011194        0.8113084257
 H         -1.0680199951       -0.8755512309       -0.5627992689
 H          0.0251357012       -1.5229366619       -1.6574468437
 H         -0.3933410402        0.0921035357       -1.7406836384
 H          1.0957174238       -1.1722839136        0.5109037810
 H          1.9822945652        0.0523591367       -2.0301004112
 H          2.9533296271       -0.8315508465       -0.8662163701
 H          3.2351913320        1.9097665922       -1.2279925786
 H          3.5323032862        1.1458275804        0.3269941258
 H          1.0749553570        2.6881069525       -0.5654227138
 H          1.8528890969        2.7059753401        1.0105566699
 H         -0.4606365006        1.2326197736        0.4982480718
 H          0.7018681025        0.7522746883        1.7229959738
  19
  -24.257715550000000        4.3479458681495269E-003 !md5
 N         -0.2017005169       -0.6886099525       -1.0923553410
 C          0.9146299248       -0.3217130603       -0.1756691073
 C          2.2153685711       -0.0219466110       -0.9615862208
 C          2.7685464292        1.3103338086       -0.4219407394
 C          1.5649731688        2.0499945400        0.1869172356
 C          0.5769540761        0.9559175899        0.6371070288
 Cl        -3.0573557403       -1.2499392974        0.8107634206
 H          0.0266518262       -1.5269723754       -1.6496995491
 H         -0.3966457841        0.0857960120       -1.7509619489
 H         -1.0702424547       -0.8778520829       -0.5647000195
 H          1.0903164702       -1.1598480265        0.5177042088
 H          1.9802359901        0.0633294297       -2.0281397004
 H          2.9436282393       -0.8377334048       -0.8708308461
 H          3.2567322549        1.8995229875       -1.2093449336
 H          3.5305119517        1.1259312921        0.3453013969
 H          1.1002337082        2.7003873523       -0.5643162596
 H          1.8615490702        2.7014605277        1.0196505090
 H         -0.4637234159        1.2539046565        0.4643640664
 H          0.6694558424        0.7676458881        1.7135810046
  19
  -24.257564559999999        3.7059019863915376E-003 !gc
 N         -0.1383328701       -0.7890767153       -1.0563622047
 C          0.9349642765       -0.3446485993       -0.1227484931
 C          2.2581003691       -0.0580554874       -0.8790730975
 C          2.5369805876        1.4517678272       -0.7431662680
 C          1.7442045741        1.9209282372        0.4888424230
 C          0.5408851993        0.9663899146        0.6034251091
 Cl        -3.0774123939       -1.1877317533        0.7625074553
 H         -0.3017048424       -0.0742034477       -1.7815179472
 H         -1.0329263143       -0.9375935804       -0.5519547754
 H          0.1136977936       -1.6691764757       -1.5331775215
 H          1.1039242557       -1.1385506465        0.6224041840
 H          2.1705948526       -0.3608834673       -1.9286736322
 H          3.0826668600       -0.6450559634       -0.4560745879
 H          2.1967499191        1.9864088324       -1.6387405554
 H          3.6099289783        1.6626057458       -0.6457239356
 H          1.4283744603        2.9684786924        0.3991475749
 H          2.3680319616        1.8606081152        1.3894405685
 H         -0.3399848750        1.3978739581        0.1149741743
 H          0.2561703649        0.7845232303        1.6471576128
  19
  -24.257503140000001        3.4726998739217918E-003 !gc
 N         -0.1490318496       -0.7836574653        1.0531664251
 C          0.9302788523       -0.3507704434        0.1210704508
 C          0.5509701308        0.9661457738       -0.6024108520
 C          1.7439789159        1.9276704821       -0.4427868775
 C          2.5212438908        1.4351534255        0.7899491323
 C          2.2549161221       -0.0798139794        0.8807173109
 Cl        -3.0669541480       -1.1755881827       -0.7981028439
 H         -1.0399203137       -0.9254594483        0.5481647765
 H         -0.3085386479       -0.0629600891        1.7789112395
 H          0.0940657049       -1.6648286012        1.5325943607
 H          1.0910038316       -1.1465311870       -0.6239817821
 H         -0.3468977403        1.3868703694       -0.1365591613
 H          0.2986335048        0.7940952886       -1.6563711966
 H          1.4173355458        2.9700563395       -0.3323878314
 H          2.3833378451        1.8957908033       -1.3335523552
 H          2.1608728785        1.9422746893        1.6934142939
 H          3.5938044974        1.6586082041        0.7156977170
 H          2.1750052021       -0.4166451438        1.9207891148
 H          3.0814560479       -0.6458981542        0.4344774237
  19
  -24.257560760000000        3.6910299555129289E-003 !md4
 N         -0.1997619697       -0.7266796207        1.0733126182
 C          0.9181576734       -0.3261566667        0.1727914993
 C          0.5748581909        0.9683887175       -0.6097263682
 C          1.5765378093        2.0495834735       -0.1573995571
 C          2.7761428787        1.2954108901        0.4415406222
 C          2.2126456293       -0.0357861574        0.9726329143
 Cl        -3.0652144061       -1.2233356671       -0.8351416389
 H         -0.4007463455        0.0238101312        1.7514961017
 H          0.0317676111       -1.5833043241        1.6082332344
 H         -1.0654594042       -0.9043772140        0.5370350284
 H          1.1059998279       -1.1444782628       -0.5407315766
 H         -0.4605275801        1.2688700778       -0.4128978795
 H          0.6460709336        0.7994118942       -1.6913018790
 H          1.1219902562        2.7001722376        0.6000998958
 H          1.8753687296        2.7031852417       -0.9872493444
 H          3.2717515356        1.8742812495        1.2317591945
 H          3.5341595470        1.1098603954       -0.3297179297
 H          1.9673818011        0.0481481915        2.0372510194
 H          2.9374820754       -0.8547482657        0.8865897871
  19
  -24.257527620000001        3.5638341110160142E-003 !mtd8
 N         -0.1388933685       -0.7744827602       -1.0552653615
 C          0.9428371744       -0.3541878698       -0.1201204536
 C          2.2600598834       -0.0568894634       -0.8816709056
 C          2.5139877669        1.4580777352       -0.7627726265
 C          1.7420713327        1.9192010530        0.4853550352
 C          0.5583379638        0.9443237327        0.6345214771
 Cl        -3.0777575147       -1.1849180459        0.7589060505
 H          0.1050199760       -1.6465431478       -1.5509502144
 H         -0.3030569569       -0.0418565504       -1.7678476767
 H         -1.0280008086       -0.9272035387       -0.5505340732
 H          1.1137473684       -1.1647324228        0.6064729541
 H          2.1766468557       -0.3736715767       -1.9275060049
 H          3.0944414678       -0.6245734052       -0.4516357354
 H          2.1421372873        1.9799261477       -1.6532828122
 H          3.5848211746        1.6894868053       -0.6923196653
 H          1.4058152958        2.9605959737        0.3984212710
 H          2.3887080354        1.8749199004        1.3706918345
 H         -0.3471799889        1.3671021120        0.1850404272
 H          0.3166227090        0.7479319112        1.6864215903
  19
  -24.257515139999999        3.5170785624931821E-003 !gc
 N         -0.1427435985       -0.7985844397        1.0388183068
 C          0.9427415223       -0.3565670869        0.1181755250
 C          0.5596688179        0.9557044519       -0.6115279840
 C          1.7455250587        1.9250267789       -0.4468284498
 C          2.5140326410        1.4439720449        0.7958691607
 C          2.2560783658       -0.0721908451        0.8926728385
 Cl        -3.0762517930       -1.1674777579       -0.7920689586
 H         -0.3111506158       -0.0840777557        1.7631783549
 H          0.1010692140       -1.6838279238        1.5189273164
 H         -1.0291270255       -0.9417505067        0.5265599774
 H          1.1194098293       -1.1514598452       -0.6241424364
 H         -0.3437709342        1.3721123142       -0.1526262321
 H          0.3153117335        0.7790083617       -1.6666030233
 H          1.4118923023        2.9661238243       -0.3455480569
 H          2.3932422111        1.8915093842       -1.3314818078
 H          2.1418737448        1.9539043569        1.6929589421
 H          3.5858400989        1.6737723273        0.7307158493
 H          2.1648691047       -0.4027686828        1.9338240645
 H          3.0918402646       -0.6359429193        0.4608739742
  19
  -24.257436930000001        3.2377196575631415E-003 !mtd6
 N         -0.2015777046       -0.7299188507        1.0805041910
 C          0.9079356680       -0.3174826073        0.1750443279
 C          0.5584056093        0.9874973751       -0.5874615465
 C          1.5866434652        2.0535258504       -0.1576020756
 C          2.7851619421        1.2825944816        0.4220809042
 C          2.2105274633       -0.0387820038        0.9648533114
 Cl        -3.0607098358       -1.2280484855       -0.8373241142
 H         -1.0707704908       -0.9041546917        0.5485911520
 H         -0.3997445677        0.0152902330        1.7710697271
 H          0.0355120656       -1.5885823304        1.6019284997
 H          1.0893640843       -1.1259648250       -0.5512406007
 H         -0.4666164156        1.2993670631       -0.3569904007
 H          0.5938172352        0.8256572710       -1.6718919731
 H          1.1571614358        2.7142760380        0.6057387497
 H          1.8805177165        2.6994526034       -0.9951702473
 H          3.3026986307        1.8551526734        1.2027893553
 H          3.5270786520        1.0841335041       -0.3615168282
 H          1.9733178866        0.0542343741        2.0305206885
 H          2.9248996555       -0.8668723442        0.8784128223
  19
  -24.257400839999999        3.1164016557886157E-003 !md4
 N         -0.1986275231       -0.7387293608        1.0744012617
 C          0.9124181978       -0.3186265850        0.1743341038
 C          0.5597950055        0.9858982166       -0.5876228461
 C          1.5883686232        2.0533275167       -0.1614266336
 C          2.7858550617        1.2848299026        0.4236638967
 C          2.2103290196       -0.0347342994        0.9697492149
 Cl        -3.0652388377       -1.2250353368       -0.8351029560
 H         -0.4001989379       -0.0000623692        1.7652533369
 H          0.0403262737       -1.6022611824        1.5947475529
 H         -1.0659655452       -0.9127573930        0.5395660328
 H          1.1011915104       -1.1248133670       -0.5526076161
 H         -0.4647512161        1.2970288153       -0.3541273035
 H          0.5917641914        0.8235548361       -1.6720807559
 H          1.1583375704        2.7181656732        0.5980433081
 H          1.8836801701        2.6950185667       -1.0017422662
 H          3.3014144472        1.8603377541        1.2035187253
 H          3.5296688474        1.0837379122       -0.3574499504
 H          1.9674440917        0.0629343884        2.0337219294
 H          2.9262058907       -0.8622650478        0.8908347967
  19
  -24.257404709999999        3.1291901555435277E-003 !md4
 N         -0.1413586993       -0.8099117411        1.0412773878
 C          0.9370235517       -0.3519587763        0.1201163152
 C          0.5457859579        0.9679385981       -0.5904389047
 C          1.7426044886        1.9266231444       -0.4470031933
 C          2.5264180506        1.4398866464        0.7839060868
 C          2.2552377580       -0.0738110976        0.8890800740
 Cl        -3.0727888434       -1.1669158054       -0.7961341728
 H         -0.3080178093       -0.1059010966        1.7762471804
 H          0.1082398222       -1.7007608828        1.5078546648
 H         -1.0300258342       -0.9491522114        0.5319251477
 H          1.1116457374       -1.1359061246       -0.6342186591
 H         -0.3429384711        1.3876180387       -0.1064847026
 H          0.2744775952        0.8007645106       -1.6404784801
 H          1.4200535286        2.9708080951       -0.3416193641
 H          2.3752349344        1.8859585040       -1.3421961622
 H          2.1743139779        1.9557430113        1.6857081923
 H          3.5992439048        1.6588312965        0.7007494250
 H          2.1640132069       -0.3977795966        1.9322920848
 H          3.0848104130       -0.6477121942        0.4586937776
  19
  -24.257313210000000        2.8404128372295869E-003 !gc
 N         -0.1351717022       -0.7987140953       -1.0495780006
 C          0.9398918837       -0.3465461893       -0.1216913414
 C          2.2581914831       -0.0544537853       -0.8845595621
 C          2.5363454277        1.4551927267       -0.7433005447
 C          1.7443688563        1.9199209708        0.4909235082
 C          0.5423488404        0.9636913297        0.6037626815
 Cl        -3.0812612092       -1.1838134060        0.7603128003
 H          0.1180855726       -1.6802452813       -1.5233773151
 H         -0.3040827882       -0.0850773742       -1.7800792000
 H         -1.0243775512       -0.9470386245       -0.5437282703
 H          1.1166722862       -1.1377822036        0.6244947061
 H          2.1643753723       -0.3520873900       -1.9350981807
 H          3.0860313025       -0.6428986011       -0.4700068607
 H          2.1952585855        1.9929444294       -1.6367096943
 H          3.6092387285        1.6662757509       -0.6459218320
 H          1.4271526315        2.9673196242        0.4044739229
 H          2.3690832996        1.8577324774        1.3907992553
 H         -0.3384241374        1.3937553865        0.1138646524
 H          0.2563241585        0.7812787229        1.6470285642
  19
  -24.255970130000001        6.8571655561988805E-004 !md4
 N         -0.1313539528       -0.9565823497        1.0050425521
 C          0.8855636319       -0.2611710215        0.1656086883
 C          0.4199057641        1.1471131142       -0.2564830484
 C          1.6917017718        2.0142830858       -0.3722051555
 C          2.8209769220        1.2664592564        0.3792666650
 C          2.2129095709       -0.0454391029        0.9217084640
 Cl        -3.0895038353       -1.1797373442       -0.8098664674
 H         -1.0242879033       -1.0601713065        0.4946009765
 H         -0.3235687603       -0.4163316173        1.8667424758
 H          0.1907081691       -1.8954937877        1.2878474778
 H          1.0783879962       -0.8618385877       -0.7372183148
 H         -0.2553633067        1.5450169421        0.5089392970
 H         -0.1535638419        1.1219795353       -1.1916654965
 H          1.5287735150        3.0181667760        0.0406015285
 H          1.9609055835        2.1619791360       -1.4256964470
 H          3.2374084199        1.8770564010        1.1905359564
 H          3.6588669689        1.0518165135       -0.2964932340
 H          2.0043440150        0.0355165420        1.9944098098
 H          2.8914970105       -0.8990455117        0.8024710197
