36
 energy: -55.102112077659 gnorm: 0.000332427222 xtb: 6.5.1 (fef0646)
N            1.09550024992011        0.89014186141629        0.03197621778261
C            2.55705656846989        0.88838170215473        0.03434544584389
C            3.07608586280663        0.09270936898846        1.23602674055384
C            4.56992536867195        0.20413528959376        1.33063694803781
C            5.15495123362366        1.27540432598777        1.99699904951727
C            6.52609794323464        1.40496219621619        2.06896695668824
C            7.36814402629817        0.46367343576409        1.46993027829890
C            8.81572402265547        0.53826475445444        1.51726073998776
C            9.54566682071308        1.39497114376381        2.24605691903037
C           10.99412979670442        1.45841814375215        2.29899439558891
C           11.82063611044603        0.70559541650195        1.46139752470429
C           13.18938407019101        0.82175514877661        1.57629385908405
F           13.97157295982248        0.08600496201232        0.75453871453120
C           13.79204332629007        1.66177031236440        2.49574813919340
C           12.97399180872791        2.41131812977645        3.32450647571381
C           11.59983527151125        2.31339856973934        3.22625414350033
C            6.77214671596647       -0.60239234790538        0.79022888290587
C            5.39972043155305       -0.73013903958477        0.72382206801462
Cl           0.13831419542511        2.11033511296278        2.52534599358899
H            0.72868622999721        1.42577633115186       -0.74669911517315
H            0.58513234434154        1.54030633562657        1.36049863860914
H            0.73413283837063       -0.05675800169858       -0.02259168547491
H            2.88890520851544        1.92599070808197        0.11613749385294
H            2.97610320550704        0.46842482467205       -0.89137005691527
H            2.78388021083520       -0.95407425829496        1.12812206296983
H            2.61055929689982        0.49161395194426        2.13751142007368
H            4.52093626834776        2.01188745737265        2.46915975391844
H            6.94695672676764        2.25030120733517        2.59080317883828
H            9.31767069698656       -0.20065148886192        0.90661097133323
H            9.04567584991742        2.11108193631137        2.88413882923192
H           11.41570947313677        0.03845583902396        0.71810279729678
H           14.86711381912785        1.72088295398308        2.55061182219669
H           13.41650406548712        3.07684704125665        4.05028690966131
H           10.97618770175606        2.90495176890032        3.88060083393639
H            7.39994235481845       -1.34312489529264        0.31508464284007
H            4.96571692615272       -1.56949019824491        0.19860201023269
