28
 energy: -40.973212029966 gnorm: 0.000335147080 xtb: 6.5.1 (fef0646)
N            1.11357036116831        0.15974686275859        0.11884061834803
C            2.49182363490154       -0.23958889121963        0.46666989894865
C            2.95311289458571       -1.41726989818684       -0.39133080584873
C            2.18276310264961       -2.69783924469422       -0.06037947806130
C            2.66935932551463       -3.85978513256723       -0.92273237120521
C            4.17818092037930       -4.07821426935146       -0.72313188018553
C            4.59670574318110       -5.29132004084167       -1.52171165449403
O            4.78201727609230       -5.14295812275384       -2.83084142923054
O            4.72869080611485       -6.38715571619280       -1.02061721620539
C            4.93808665294609       -2.79787433607159       -1.07676079855976
C            4.45203416977445       -1.65375605998631       -0.19072971526264
Cl           0.72610217272157        0.38172184136635       -2.90914907998255
H            0.85582967487903        1.04222666616644        0.56494772716260
H            0.44451087460797       -0.56449580679082        0.38763252383239
H            1.02180358177199        0.28135726704565       -0.92238798097565
H            2.53805166763854       -0.50297148677791        1.52431391582987
H            3.15198961799898        0.60706280378972        0.28085056645769
H            2.76801163972890       -1.15696227536779       -1.43856707747992
H            1.11972947018613       -2.56479813991509       -0.25893583641163
H            2.31956757388696       -2.95106230613033        0.99215672090830
H            2.46205173361575       -3.63828484624879       -1.97218563398606
H            2.13266851591167       -4.77430010570699       -0.66185381784467
H            4.35614969117760       -4.33158946726094        0.32637283216113
H            4.66424428861970       -4.22662158721862       -3.14021796712330
H            4.75897643716841       -2.51732181438999       -2.11725882274679
H            6.01018226959894       -2.95070535648529       -0.94077262710599
H            5.00713270032661       -0.74910633330828       -0.43991235406181
H            4.64785320285028       -1.89658420365288        0.85472174312742
