26
 energy: -37.938245515434 gnorm: 0.000622160157 xtb: 6.5.1 (fef0646)
N            2.86239466067452        0.90676573222232        1.61391523465516
C            2.50905714522922        0.27180931461134        0.34559676437289
C            2.95295616882005       -1.19489294235679        0.36233975168855
C            4.44671173232995       -1.29809726563621        0.49526479240897
C            5.03807180258469       -1.47458910306065        1.73745015497143
C            6.41537231799302       -1.52810475483840        1.87840414964848
C            7.23211003398718       -1.40083616072722        0.76105640639500
O            8.59464579689864       -1.43829378515192        0.77641523702538
C            9.24570124817807       -1.66796125071109        2.00179171179821
C            6.64340217668255       -1.21842748633947       -0.49137205306546
C            5.27202300784629       -1.16777909284242       -0.61736672755131
Cl           1.68063337770714       -0.55093999848243        3.84643237062067
H            2.56719137183850        1.87607372102618        1.64114294466101
H            3.86671155101600        0.85795625516317        1.75933844878844
H            2.22944891693196        0.14162448417473        2.77371301720992
H            2.97223150181159        0.78399810294513       -0.50947199469976
H            1.42381409594032        0.32659513629534        0.23643599383866
H            2.62520335212414       -1.66686220133044       -0.56475787915800
H            2.46935638465067       -1.69322947275065        1.20164060846762
H            4.41369029997421       -1.57870277012024        2.61259645367952
H            6.83453338267338       -1.67059437228767        2.86187246670405
H           10.30924670050662       -1.69371435195941        1.77019295667226
H            8.94824123407246       -2.62516718842739        2.44150925317942
H            9.05205570597556       -0.86305305601079        2.71849894383773
H            7.28755232724268       -1.12340093832436       -1.35118208497139
H            4.83303370630853       -1.03208655508083       -1.59554692117818
