  14
        -14.11379716
 N         -1.5203217565       -0.5075468152       -0.1220559510
 C         -0.6399561798        0.6151262124        0.3237266013
 C          0.7477606597        0.6001883641       -0.3189442617
 C          1.6192763211       -0.5654260004        0.1320627568
 H         -1.6370832424       -0.4944118969       -1.1393674335
 H         -2.4489023692       -0.4388281186        0.3048908495
 H         -1.1250067385       -1.4148763512        0.1412868683
 H         -0.5419969505        0.5832637225        1.4151977893
 H         -1.1466758287        1.5622092358        0.0978559364
 H          1.2637898395        1.5440802435       -0.0981615955
 H          0.6376980652        0.5811928025       -1.4096384556
 H          1.1826379072       -1.5242535349       -0.1474423065
 H          1.7471327653       -0.5669918449        1.2155825955
 H          2.6148131866       -0.5226787419       -0.3147665694
  14
        -14.11358087
 N         -1.8563971417        0.0387892938       -0.2338138158
 C         -0.5425878846        0.0016950385        0.4794491042
 C          0.6533301213        0.0043942416       -0.4695469854
 C          1.9953247122       -0.0493960848        0.2526382228
 H         -1.9582684394       -0.7758685837       -0.8442437796
 H         -1.9296261761        0.8806495725       -0.8105722979
 H         -2.6353586477        0.0387035799        0.4296195538
 H         -0.5061544659       -0.8884561844        1.1185423219
 H         -0.4782176334        0.8593467161        1.1594986672
 H          0.6068436162        0.8969965710       -1.1046573100
 H          0.5672226075       -0.8436136138       -1.1592052484
 H          2.1202670275        0.8058486322        0.9183404301
 H          2.8329868075       -0.0454548931       -0.4474760646
 H          2.0807991241       -0.9511222995        0.8607886410
  14
        -14.11048931
 N         -1.7346464681       -0.3060371993       -0.2008478548
 C         -0.5798615248        0.3941372945        0.4408837964
 C          0.6936490424        0.3767539052       -0.4279610685
 C          1.8555221215       -0.3752281882        0.2130927203
 H         -1.5022862355       -1.2834534874       -0.3952850084
 H         -1.9824882696        0.1463722877       -1.0846148729
 H         -2.5589255467       -0.2906313406        0.4056231490
 H         -0.3750780200       -0.0740016630        1.4113173759
 H         -0.8773409124        1.4246967222        0.6751471078
 H          1.0049060316        1.4029888337       -0.6640897941
 H          0.4555744375       -0.0728102935       -1.3992206749
 H          2.7371254124       -0.3854305533       -0.4308303022
 H          1.5896887222       -1.4125844509        0.4202003545
 H          2.1470767955        0.0827672388        1.1595243674
