  14
  -14.113797160000001        4.0240923991287647E-002 !mtd12
 N         -1.5203217565       -0.5075468152       -0.1220559510
 C         -0.6399561798        0.6151262124        0.3237266013
 C          0.7477606597        0.6001883641       -0.3189442617
 C          1.6192763211       -0.5654260004        0.1320627568
 H         -1.6370832424       -0.4944118969       -1.1393674335
 H         -2.4489023692       -0.4388281186        0.3048908495
 H         -1.1250067385       -1.4148763512        0.1412868683
 H         -0.5419969505        0.5832637225        1.4151977893
 H         -1.1466758287        1.5622092358        0.0978559364
 H          1.2637898395        1.5440802435       -0.0981615955
 H          0.6376980652        0.5811928025       -1.4096384556
 H          1.1826379072       -1.5242535349       -0.1474423065
 H          1.7471327653       -0.5669918449        1.2155825955
 H          2.6148131866       -0.5226787419       -0.3147665694
  14
  -14.113790120000001        3.9942255390263422E-002 !gc
 N         -1.5183591989       -0.5088559189       -0.1212573719
 C         -0.6404527324        0.6165217672        0.3225719951
 C          0.7482206664        0.6016015592       -0.3177882042
 C          1.6170910902       -0.5666106311        0.1313083896
 H         -1.1277677838       -1.4144217839        0.1549599249
 H         -1.6235280944       -0.5052187076       -1.1399276730
 H         -2.4518084142       -0.4341199554        0.2941888788
 H         -0.5444666453        0.5883022539        1.4143174290
 H         -1.1477340077        1.5622823902        0.0925830920
 H          1.2650291266        1.5441926699       -0.0932922017
 H          0.6401119546        0.5859662444       -1.4088315033
 H          1.1816032302       -1.5237406298       -0.1558421911
 H          1.7393085468       -0.5741432030        1.2154533325
 H          2.6148618228       -0.5215556563       -0.3102968042
  14
  -14.113789310000000        3.9908034040735299E-002 !gc
 N         -1.5184516246       -0.5087943263       -0.1212983813
 C         -0.6404310233        0.6164569670        0.3226303612
 C          0.7482074282        0.6015383564       -0.3178510834
 C          1.6171805889       -0.5665484235        0.1313428374
 H         -1.6237438864       -0.5050029812       -1.1398649890
 H         -2.4517909754       -0.4341039875        0.2943864333
 H         -1.1277870596       -1.4144519883        0.1546327669
 H         -0.5443324539        0.5880365178        1.4143726158
 H         -1.1476715329        1.5623009524        0.0928342188
 H          1.2650009830        1.5441824272       -0.0935408645
 H          0.6399910726        0.5857086400       -1.4088809310
 H          1.7399637685       -0.5735765907        1.2155035871
 H          2.6146475244       -0.5218419051       -0.3108109366
 H          1.1814492365       -1.5237793356       -0.1551064397
  14
  -14.113787009999999        3.9811022050601566E-002 !gc
 N         -1.5189816291       -0.5084670498       -0.1214998190
 C         -0.6402894026        0.6161135353        0.3229567910
 C          0.7480688439        0.6011654401       -0.3181352595
 C          1.6177460622       -0.5662368861        0.1315573015
 H         -1.1285598873       -1.4142233275        0.1542215761
 H         -1.6239822873       -0.5044273080       -1.1401518465
 H         -2.4523498282       -0.4337253444        0.2940836316
 H         -0.5438646959        0.5869559016        1.4146456535
 H         -1.1473589492        1.5622270006        0.0939010093
 H          1.2646709831        1.5441599435       -0.0947931479
 H          0.6393188795        0.5844740714       -1.4091043946
 H          1.7421028641       -0.5717374701        1.2155230372
 H          2.6145891129       -0.5220756341       -0.3120391535
 H          1.1817510655       -1.5238801470       -0.1530208121
  14
  -14.113779800000000        3.9508436251435859E-002 !md7
 N         -1.5183371842       -0.5088724841       -0.1212616511
 C         -0.6404780991        0.6165925569        0.3225458642
 C          0.7482079717        0.6015900415       -0.3177534162
 C          1.6171253661       -0.5666256146        0.1312755965
 H         -2.4506817112       -0.4355933544        0.2967032835
 H         -1.1262479771       -1.4145352874        0.1527939451
 H         -1.6260761636       -0.5039280111       -1.1397145965
 H         -0.5446953197        0.5885948794        1.4143135577
 H         -1.1478393144        1.5622784806        0.0924074800
 H          1.2650669060        1.5441953610       -0.0934973409
 H          0.6399556009        0.5858527146       -1.4087197276
 H          1.7418713648       -0.5724595110        1.2152010329
 H          2.6138891641       -0.5233069218       -0.3126735569
 H          1.1801063595       -1.5238523038       -0.1531547000
  14
  -14.113779660000001        3.9502583617726919E-002 !md8
 N         -1.5182651791       -0.5089190776       -0.1212386742
 C         -0.6404965589        0.6166430101        0.3225153383
 C          0.7482193028        0.6016308598       -0.3177190193
 C          1.6170489951       -0.5666666146        0.1312517651
 H         -1.6251143212       -0.5046425799       -1.1397293834
 H         -2.4510357246       -0.4350386260        0.2958240474
 H         -1.1266366113       -1.4144872255        0.1537757786
 H         -0.5447927743        0.5887141528        1.4142912247
 H         -1.1478813412        1.5622871361        0.0922660045
 H          1.2651240078        1.5441923086       -0.0933904275
 H          0.6400062833        0.5859699767       -1.4086899576
 H          2.6137976001       -0.5235366407       -0.3129193056
 H          1.1798476826       -1.5237828084       -0.1529999119
 H          1.7420285156       -0.5723812192        1.2151498640
  14
  -14.113779060000001        3.9477510720050672E-002 !md8
 N         -1.5185946900       -0.5086638385       -0.1214036622
 C         -0.6403750547        0.6163670846        0.3227885526
 C          0.7481173526        0.6013532833       -0.3179759326
 C          1.6174162118       -0.5664275652        0.1314232311
 H         -1.1268980869       -1.4144665760        0.1525124980
 H         -1.6262530996       -0.5035028837       -1.1398681470
 H         -2.4510260674       -0.4351240819        0.2964472970
 H         -0.5442840590        0.5877496002        1.4145110279
 H         -1.1476098715        1.5622791548        0.0933037301
 H          1.2648335217        1.5441973149       -0.0943944348
 H          0.6394395512        0.5849607933       -1.4088883365
 H          2.6139723266       -0.5232917338       -0.3131891954
 H          1.1803483176       -1.5238361950       -0.1520782847
 H          1.7427908756       -0.5714706687        1.2152770110
  14
  -14.113778880000000        3.9469991954437865E-002 !gc
 N         -1.5185099921       -0.5087488208       -0.1213366935
 C         -0.6404208212        0.6164559087        0.3226800242
 C          0.7481564771        0.6014615455       -0.3178745617
 C          1.6173001635       -0.5665093508        0.1313637981
 H         -2.4508335153       -0.4355750226        0.2966986270
 H         -1.1263962659       -1.4145174630        0.1523359322
 H         -1.6262529865       -0.5034736373       -1.1397874342
 H         -0.5444267401        0.5881128267        1.4144172643
 H         -1.1477278725        1.5622614499        0.0929227736
 H          1.2649394228        1.5442025850       -0.0940176566
 H          0.6397064857        0.5853754402       -1.4088159848
 H          1.1802954574       -1.5238770059       -0.1526040697
 H          1.7422718694       -0.5719624317        1.2151955514
 H          2.6140225967       -0.5232450465       -0.3128489449
  14
  -14.113778540000000        3.9455793748523670E-002 !mtd6
 N         -1.5185967767       -0.5086933081       -0.1213699899
 C         -0.6403984346        0.6163903305        0.3227281922
 C          0.7481359583        0.6013970822       -0.3179225667
 C          1.6173943330       -0.5664591409        0.1313964431
 H         -2.4507381362       -0.4357484380        0.2971095549
 H         -1.1262996954       -1.4145639007        0.1516919029
 H         -1.6268264751       -0.5029696799       -1.1397673489
 H         -0.5443307430        0.5878913437        1.4144549399
 H         -1.1476624751        1.5622590719        0.0931357047
 H          1.2648855423        1.5441887439       -0.0941990602
 H          0.6396047037        0.5851884907       -1.4088537367
 H          2.6140322348       -0.5232568311       -0.3130110322
 H          1.1804055368       -1.5238467601       -0.1522665742
 H          1.7425895351       -0.5716604587        1.2152734551
  14
  -14.113775430000000        3.9326158715922648E-002 !md2
 N         -1.5159671598       -0.5072747118        0.1532129830
 C         -0.6460131399        0.6129035206       -0.3187014254
 C          0.7534780775        0.6051018890        0.2977803589
 C          1.6147818552       -0.5682812232       -0.1523224852
 H         -1.1310466529       -1.4159496715       -0.1209264372
 H         -2.4564983112       -0.4359004434       -0.2463442900
 H         -1.6031551632       -0.4930796028        1.1735616766
 H         -1.1493309291        1.5612694500       -0.0907028061
 H         -0.5694102814        0.5722678938       -1.4116003911
 H          0.6638050622        0.6018745943        1.3905219691
 H          1.2663961722        1.5450096478        0.0540672148
 H          1.1813380836       -1.5221656934        0.1483448543
 H          2.6180849261       -0.5212712413        0.2762741544
 H          1.7233144538       -0.5851718067       -1.2378650477
  14
  -14.113772120000000        3.9188654884926510E-002 !gc
 N         -1.5167294891       -0.5067601763        0.1533605344
 C         -0.6457346675        0.6123047529       -0.3193069943
 C          0.7532572465        0.6045573812        0.2983544013
 C          1.6155786689       -0.5678055925       -0.1524678958
 H         -1.6057239593       -0.4901045731        1.1734581718
 H         -1.1314221689       -1.4162249561       -0.1178316196
 H         -2.4565358245       -0.4361891681       -0.2480159001
 H         -1.1487643107        1.5612214037       -0.0929532306
 H         -0.5682521875        0.5702329846       -1.4120845777
 H          0.6626569526        0.6000234138        1.3910112190
 H          1.2658980484        1.5450076477        0.0561590718
 H          1.1821494532       -1.5223515602        0.1461020948
 H          2.6183349930       -0.5210556128        0.2774402373
 H          1.7255679682       -0.5828706817       -1.2378965471
  14
  -14.113771959999999        3.9182020369366806E-002 !gc
 N         -1.5167292391       -0.5067624209        0.1533565001
 C         -0.6457373096        0.6123059948       -0.3193067308
 C          0.7532567213        0.6045593945        0.2983478577
 C          1.6155761470       -0.5678084751       -0.1524695775
 H         -1.6057257877       -0.4900799186        1.1734539884
 H         -1.1314000206       -1.4162324567       -0.1177860439
 H         -2.4565504068       -0.4361921623       -0.2479858702
 H         -1.1487650146        1.5612232063       -0.0929516801
 H         -0.5682623263        0.5702309506       -1.4120846181
 H          0.6626675351        0.6000369970        1.3910057876
 H          1.2658974100        1.5450076390        0.0561438379
 H          2.6184219601       -0.5210094961        0.2773970921
 H          1.7254972420       -0.5829183836       -1.2378353788
 H          1.1821926972       -1.5223507247        0.1461827499
  14
  -14.113771590000001        3.9166682353903283E-002 !gc
 N         -1.5168627380       -0.5066664654        0.1533868819
 C         -0.6456870473        0.6122002481       -0.3194173602
 C          0.7532068018        0.6044543729        0.2984617621
 C          1.6157241153       -0.5677221465       -0.1524951377
 H         -1.6063066239       -0.4895291159        1.1734378481
 H         -1.1313899409       -1.4162577202       -0.1171418798
 H         -2.4565161700       -0.4362928877       -0.2483863322
 H         -1.1486732846        1.5612107989       -0.0933636144
 H         -0.5680248182        0.5698677030       -1.4121711628
 H          0.6624391790        0.5996477992        1.3911028423
 H          1.2657990921        1.5450054593        0.0565569982
 H          1.7257805188       -0.5825299354       -1.2379202467
 H          1.1824312853       -1.5223421892        0.1457853462
 H          2.6185218723       -0.5209148163        0.2774834234
  14
  -14.113770990000001        3.9141822657927934E-002 !gc
 N         -1.5169981039       -0.5065703876        0.1534121773
 C         -0.6456353174        0.6120894030       -0.3195330138
 C          0.7531718569        0.6043554979        0.2985645544
 C          1.6158676192       -0.5676323794       -0.1525260795
 H         -1.1314273541       -1.4162075148       -0.1165744552
 H         -2.4565084111       -0.4363958957       -0.2487506268
 H         -1.6068354906       -0.4889840860        1.1734775712
 H         -1.1485685834        1.5612008133       -0.0937855110
 H         -0.5678105119        0.5694966179       -1.4122644943
 H          0.6622163385        0.5993238376        1.3911886986
 H          1.2657090362        1.5450080251        0.0569385374
 H          2.6185138309       -0.5209190983        0.2778129550
 H          1.7262588416       -0.5821513826       -1.2378528717
 H          1.1824844428       -1.5224119438        0.1453638856
  14
  -14.113769690000000        3.9088014100063198E-002 !gc
 N         -1.5174645438       -0.5062296276        0.1535232924
 C         -0.6454444204        0.6117056844       -0.3199411170
 C          0.7530133410        0.6040091670        0.2989633275
 C          1.6163569240       -0.5673186826       -0.1526226997
 H         -2.4562038930       -0.4369267749       -0.2504226171
 H         -1.6090111300       -0.4868716413        1.1734088025
 H         -1.1312825966       -1.4163529846       -0.1141451072
 H         -1.1482289870        1.5611684591       -0.0953454348
 H         -0.5669290004        0.5681370472       -1.4125820221
 H          0.6614446739        0.5981119652        1.3915290860
 H          1.2653866219        1.5450115063        0.0583500529
 H          1.1828975538       -1.5225272043        0.1437652025
 H          2.6185385670       -0.5209285573        0.2786538438
 H          1.7276855458       -0.5806363389       -1.2379396792
  14
  -14.113769570000001        3.9083050887036667E-002 !gc
 N         -1.5174799954       -0.5062173892        0.1535258689
 C         -0.6454425113        0.6116887754       -0.3199565459
 C          0.7530053879        0.6039891144        0.2989771052
 C          1.6163827374       -0.5673116680       -0.1526276613
 H         -1.1314529498       -1.4163046156       -0.1142761866
 H         -2.4563624298       -0.4368154757       -0.2502401256
 H         -1.6088602341       -0.4869200797        1.1734209080
 H         -1.1482135710        1.5611614893       -0.0953723973
 H         -0.5669347411        0.5680985081       -1.4125966440
 H          0.6614081768        0.5980331179        1.3915399396
 H          1.2653585196        1.5450133560        0.0584108104
 H          1.7275801298       -0.5806869852       -1.2379558415
 H          1.1830537203       -1.5224606895        0.1438937898
 H          2.6186998764       -0.5207463514        0.2784908708
  14
  -14.113769509999999        3.9080569516782029E-002 !gc
 N         -1.5171300435       -0.5064768670        0.1534354642
 C         -0.6455853800        0.6119896838       -0.3196369093
 C          0.7531265985        0.6042584680        0.2986645337
 C          1.6160066651       -0.5675449425       -0.1525514818
 H         -2.4564119643       -0.4365801364       -0.2491446739
 H         -1.6074014666       -0.4884615155        1.1734621446
 H         -1.1313518762       -1.4162616577       -0.1159708136
 H         -1.1484891654        1.5611817194       -0.0941619435
 H         -0.5675927132        0.5691827906       -1.4123470102
 H          0.6620428813        0.5990316609        1.3912788267
 H          1.2656230362        1.5450225840        0.0573795504
 H          2.6185818589       -0.5208777759        0.2779528632
 H          1.7264889952       -0.5818283636       -1.2378722335
 H          1.1826633572       -1.5224469227        0.1450027464
  14
  -14.113768750000000        3.9049152460389563E-002 !gc
 N         -1.5178359691       -0.5059607203        0.1536106023
 C         -0.6452957965        0.6113912841       -0.3202744644
 C          0.7528812402        0.6037214369        0.2992837163
 C          1.6167488716       -0.5670741862       -0.1527050644
 H         -2.4561797080       -0.4371036230       -0.2513355261
 H         -1.6104435806       -0.4853017703        1.1733734422
 H         -1.1313776088       -1.4164251809       -0.1124894270
 H         -1.1479397237        1.5611435610       -0.0965899154
 H         -0.5662726889        0.5670357498       -1.4128446416
 H          0.6608144813        0.5970893568        1.3918016875
 H          1.2651030686        1.5450178221        0.0595010917
 H          1.7286647568       -0.5795388744       -1.2379713120
 H          1.1834033348       -1.5225419895        0.1427484082
 H          2.6188190045       -0.5206646844        0.2790009340
  14
  -14.113580870000000        3.2008693099695056E-002 !gc
 N         -1.8563971417        0.0387892938       -0.2338138158
 C         -0.5425878846        0.0016950385        0.4794491042
 C          0.6533301213        0.0043942416       -0.4695469854
 C          1.9953247122       -0.0493960848        0.2526382228
 H         -1.9582684394       -0.7758685837       -0.8442437796
 H         -1.9296261761        0.8806495725       -0.8105722979
 H         -2.6353586477        0.0387035799        0.4296195538
 H         -0.5061544659       -0.8884561844        1.1185423219
 H         -0.4782176334        0.8593467161        1.1594986672
 H          0.6068436162        0.8969965710       -1.1046573100
 H          0.5672226075       -0.8436136138       -1.1592052484
 H          2.1202670275        0.8058486322        0.9183404301
 H          2.8329868075       -0.0454548931       -0.4474760646
 H          2.0807991241       -0.9511222995        0.8607886410
  14
  -14.113580850000000        3.2008015678189221E-002 !gc
 N         -1.8563797456        0.0407024982       -0.2337377842
 C         -0.5426155545       -0.0006101282        0.4793675131
 C          0.6533053429        0.0025566607       -0.4696150554
 C          1.9953589118       -0.0477168932        0.2527095514
 H         -2.6353059918        0.0404601501        0.4296649656
 H         -1.9597335607       -0.7723668360       -0.8461256209
 H         -1.9280927760        0.8839867313       -0.8085875631
 H         -0.5076228500       -0.8923306947        1.1163533032
 H         -0.4768341425        0.8553186008        1.1614488680
 H          0.6053084522        0.8941505673       -1.1060187192
 H          0.5686352242       -0.8465625580       -1.1580874141
 H          2.1191307605        0.8093141084        0.9163276872
 H          2.8329408830       -0.0443210092       -0.4474995362
 H          2.0820435361       -0.9478493571        0.8630358171
  14
  -14.113580640000000        3.2000903617869787E-002 !gc
 N         -1.8563794294        0.0406369748       -0.2337538943
 C         -0.5426182246       -0.0005180063        0.4793765547
 C          0.6533012550        0.0025903695       -0.4696147690
 C          1.9953599871       -0.0477599052        0.2526976168
 H         -1.9285899011        0.8844479934       -0.8076683734
 H         -2.6353684109        0.0392788597        0.4296654061
 H         -1.9592066349       -0.7718705051       -0.8469639176
 H         -0.5075677929       -0.8921570522        1.1164701056
 H         -0.4768907922        0.8555165914        1.1613296006
 H          0.6053646237        0.8941513876       -1.1060721242
 H          0.5686093573       -0.8465940700       -1.1580033663
 H          2.1191793125        0.8091948717        0.9164089965
 H          2.8330177403       -0.0443404350       -0.4474226835
 H          2.0819853598       -0.9479043033        0.8630230871
  14
  -14.113580539999999        3.1997517477880051E-002 !gc
 N         -1.8564094126        0.0385183671       -0.2338169811
 C         -0.5425859463        0.0020244174        0.4794626385
 C          0.6533351844        0.0046611041       -0.4695287750
 C          1.9953193144       -0.0496320851        0.2526328300
 H         -2.6352983509        0.0384347076        0.4296061002
 H         -1.9580217294       -0.7763991838       -0.8440470201
 H         -1.9298420932        0.8800878775       -0.8109484037
 H         -0.5059343650       -0.8879061743        1.1188492173
 H         -0.4784281449        0.8599257533        1.1592174614
 H          0.6070382846        0.8973894382       -1.1044726115
 H          0.5670414345       -0.8431876165       -1.1593544131
 H          2.0806600128       -0.9516184897        0.8604156383
 H          2.1204000970        0.8052763261        0.9186295827
 H          2.8330300922       -0.0455010377       -0.4475306794
  14
  -14.113580420000000        3.1993454582918024E-002 !gc
 N         -1.8563803676        0.0405878859       -0.2337538373
 C         -0.5426180044       -0.0004555032        0.4793817727
 C          0.6532999136        0.0026387521       -0.4696103406
 C          1.9953576589       -0.0478022231        0.2526982156
 H         -1.9285971875        0.8843114535       -0.8077955654
 H         -2.6353744474        0.0393201618        0.4296595016
 H         -1.9591993508       -0.7720137944       -0.8468404953
 H         -0.5075332417       -0.8920498152        1.1165356535
 H         -0.4769259239        0.8556298377        1.1612743563
 H          0.6054058096        0.8942256912       -1.1060348733
 H          0.5685684716       -0.8465128228       -1.1580348289
 H          2.0819656538       -0.9480115177        0.8629279593
 H          2.1192054604        0.8090574834        0.9164154861
 H          2.8330717595       -0.0443682675       -0.4474633478
  14
  -14.113580400000000        3.1992777483915172E-002 !md3
 N         -1.8563781838        0.0405966346       -0.2337535489
 C         -0.5426219808       -0.0004729863        0.4793860706
 C          0.6532933249        0.0026183899       -0.4696106030
 C          1.9953534032       -0.0477950900        0.2527005382
 H         -2.6353309729        0.0393407452        0.4296324464
 H         -1.9592243940       -0.7720437087       -0.8468026894
 H         -1.9284740723        0.8843344665       -0.8078951382
 H         -0.5075491284       -0.8920621715        1.1165488633
 H         -0.4768757757        0.8555903094        1.1613020187
 H          0.6054177837        0.8942040102       -1.1060333077
 H          0.5685382289       -0.8465477522       -1.1580162559
 H          2.8330555509       -0.0449699381       -0.4474748370
 H          2.0816768460       -0.9475766630        0.8634691204
 H          2.1194992088        0.8095635236        0.9158338515
  14
  -14.113580400000000        3.1992777483915172E-002 !gc
 N         -1.8563794498        0.0406577092       -0.2337522217
 C         -0.5426195011       -0.0005445646        0.4793778240
 C          0.6532996145        0.0025657744       -0.4696137772
 C          1.9953592249       -0.0477406725        0.2526994301
 H         -1.9285783735        0.8845005113       -0.8076211412
 H         -2.6353736778        0.0392801552        0.4296616149
 H         -1.9592139214       -0.7718195815       -0.8470006552
 H         -0.5075882139       -0.8921997970        1.1164499032
 H         -0.4768742254        0.8554711918        1.1613526137
 H          0.6053480440        0.8941131124       -1.1060887633
 H          0.5686229800       -0.8466344290       -1.1579847640
 H          2.8330668442       -0.0443564771       -0.4474672156
 H          2.0819899364       -0.9477948310        0.8630342348
 H          2.1191775961        0.8092557337        0.9163591066
  14
  -14.113580380000000        3.1992100399242225E-002 !gc
 N         -1.8563994539        0.0384211436       -0.2338264535
 C         -0.5425819427        0.0021401547        0.4794645806
 C          0.6533361854        0.0047502765       -0.4695315797
 C          1.9953170942       -0.0497188723        0.2526250638
 H         -1.9580427774       -0.7766299900       -0.8437661078
 H         -1.9299007592        0.8799470697       -0.8110327564
 H         -2.6353649001        0.0384825020        0.4296002754
 H         -0.5058727493       -0.8876868653        1.1189922943
 H         -0.4784876696        0.8601362828        1.1591074580
 H          0.6071293722        0.8975575165       -1.1043746394
 H          0.5669548578       -0.8430285294       -1.1594342874
 H          2.0805502782       -0.9517566622        0.8603462791
 H          2.1204794096        0.8051178372        0.9186979937
 H          2.8330285999       -0.0456941035       -0.4475371728
  14
  -14.113579610000000        3.1966043532169967E-002 !gc
 N         -1.8564069739        0.0406453390       -0.2337360985
 C         -0.5426157561       -0.0005562557        0.4793502225
 C          0.6533169585        0.0026381529       -0.4696172912
 C          1.9953710943       -0.0477777578        0.2527053557
 H         -1.9595882827       -0.7721209807       -0.8464606060
 H         -1.9283580359        0.8842361387       -0.8081277105
 H         -2.6353306227        0.0399550052        0.4297380165
 H         -0.5074840474       -0.8922587963        1.1163499856
 H         -0.4769735304        0.8554065050        1.1614060985
 H          0.6053517997        0.8941949966       -1.1060778516
 H          0.5686619002       -0.8465533843       -1.1580044847
 H          2.8331045952       -0.0441282877       -0.4474316009
 H          2.0820514458       -0.9480333723        0.8627389887
 H          2.1191315066        0.8090084070        0.9166402186
  14
  -14.110489310000000        1.2147456109105755E-003 !gc
 N         -1.7346464681       -0.3060371993       -0.2008478548
 C         -0.5798615248        0.3941372945        0.4408837964
 C          0.6936490424        0.3767539052       -0.4279610685
 C          1.8555221215       -0.3752281882        0.2130927203
 H         -1.5022862355       -1.2834534874       -0.3952850084
 H         -1.9824882696        0.1463722877       -1.0846148729
 H         -2.5589255467       -0.2906313406        0.4056231490
 H         -0.3750780200       -0.0740016630        1.4113173759
 H         -0.8773409124        1.4246967222        0.6751471078
 H          1.0049060316        1.4029888337       -0.6640897941
 H          0.4555744375       -0.0728102935       -1.3992206749
 H          2.7371254124       -0.3854305533       -0.4308303022
 H          1.5896887222       -1.4125844509        0.4202003545
 H          2.1470767955        0.0827672388        1.1595243674
  14
  -14.110485840000001        1.2102933219133732E-003 !mtd11
 N         -1.7386640664       -0.3010573966        0.1800496998
 C         -0.5728568987        0.3851836218       -0.4565484288
 C          0.6865301113        0.3811070645        0.4327658555
 C          1.8601727555       -0.3764832841       -0.1794956295
 H         -2.5532634861       -0.2957000575       -0.4392907671
 H         -1.9992812438        0.1681928531        1.0512199231
 H         -1.5110728915       -1.2751003089        0.3961488417
 H         -0.8642415740        1.4119067992       -0.7141834402
 H         -0.3545182061       -0.1011252757       -1.4150636701
 H          0.4333547941       -0.0568864558        1.4055099003
 H          0.9918813211        1.4108209260        0.6613207097
 H          2.7311835328       -0.3761895504        0.4787939784
 H          2.1660966317        0.0697170128       -1.1269243139
 H          1.5998869733       -1.4171460836       -0.3772291837
