  14
        -14.11379716
 N         -1.5203217565       -0.5075468152       -0.1220559510
 C         -0.6399561798        0.6151262124        0.3237266013
 C          0.7477606597        0.6001883641       -0.3189442617
 C          1.6192763211       -0.5654260004        0.1320627568
 H         -1.6370832424       -0.4944118969       -1.1393674335
 H         -2.4489023692       -0.4388281186        0.3048908495
 H         -1.1250067385       -1.4148763512        0.1412868683
 H         -0.5419969505        0.5832637225        1.4151977893
 H         -1.1466758287        1.5622092358        0.0978559364
 H          1.2637898395        1.5440802435       -0.0981615955
 H          0.6376980652        0.5811928025       -1.4096384556
 H          1.1826379072       -1.5242535349       -0.1474423065
 H          1.7471327653       -0.5669918449        1.2155825955
 H          2.6148131866       -0.5226787419       -0.3147665694
