28
 energy: -40.341122112926 gnorm: 0.000472217536 xtb: 6.5.1 (fef0646)
N            1.03997542652256        0.01597082476787       -0.37958200742075
C            2.49979121997842       -0.00593097096969       -0.10592395256018
C            3.26630705853072        0.11274107012006       -1.41945418977978
C            2.86407113560146        1.10660530428984        0.84723475585925
C            3.58205433407244        0.80559420485677        2.01942207286024
C            3.93661617899031        1.78933442111338        2.89767206626699
C            2.52518897200229        2.40898576391044        0.58555128832751
C            2.86670534552644        3.44676559823611        1.47459800039923
C            3.58705455958803        3.13381800648272        2.65640949525055
C            3.92231430647880        4.17343804601801        3.54830554168147
C            3.55799502898488        5.46415822694585        3.28410655979325
C            2.84546417321829        5.77446053546639        2.11456728449566
C            2.50923145077073        4.78945145383161        1.22902025815682
Cl          -0.51304700181479       -0.14868232549143        2.22324526452578
H            0.76642232701948       -0.77135422848622       -0.97203541508591
H            0.76822218800623        0.89192460409695       -0.83218264736819
H            0.49499154353963       -0.05054589537175        0.52080160335702
H            2.72618338649946       -0.96086935029400        0.37404286106896
H            3.04473672000545        1.05567910094719       -1.91021214677333
H            3.01880992456495       -0.70805340631287       -2.08581643694904
H            4.33344185385175        0.08095366533427       -1.22278083447050
H            3.84577740927919       -0.22071988102130        2.22665797859220
H            4.48317473854868        1.54947555981043        3.79853758477685
H            1.98599639998284        2.68266011760759       -0.30907961471946
H            4.46979310192787        3.92964023111518        4.44780909773968
H            3.81431154307608        6.25475737593339        3.97397585266004
H            2.56481746711962        6.79973394616749        1.92379972682098
H            1.95937920812774        5.02744800089490        0.33020995249513
