50
 energy: -83.659481193144 gnorm: 0.000587472201 xtb: 6.5.1 (fef0646)
N            2.05084274387228        1.15793394908878        1.64623917113190
C            3.16115409295732        1.16199635135638        0.67775508100397
C            4.07400600139718        2.37294492255185        0.90184472151813
C            5.22005376216311        2.34634050749917       -0.05007991965247
C            5.42140515270222        3.10624772986514       -1.16336049951354
C            6.60618471442765        2.78808119080894       -1.84988241288316
C            7.31777126818393        1.77381363023838       -1.26139746509480
C            8.55393937421403        1.20212125693420       -1.67673027852265
C            9.28461901031067        0.21697139822559       -1.05978597818365
C           10.47154300288083       -0.12413559770837       -1.72894373014744
C           11.41632060093295       -1.13567805368169       -1.16769142033794
C           10.65313261244617        0.61380086358815       -2.88583150222247
C           11.70309191139773        0.56664027273335       -3.86757453897248
C           12.52267690703308       -0.52983354645386       -4.08460652153547
C           13.53656513825877       -0.54742658179323       -5.04532995654274
C           13.80655621440527        0.52107635976651       -5.88260579476716
C           14.85050699244928        0.51623615121109       -6.87871502859195
C           15.37504393773059       -0.53183745062541       -7.60261196765879
C           14.90951311601686       -1.95048840535368       -7.56250616315272
C           16.40959327970852       -0.11014446985775       -8.47113076365475
C           16.66209335260691        1.22143661644342       -8.40469230786588
S           15.62583693533897        2.02221807736965       -7.29400050726752
C           12.98895264277281        1.66532509953622       -5.69944072298290
N           13.04567434231182        2.80866924183735       -6.38489785797159
S           11.91154832216327        3.80682117413692       -5.83545266156102
N           11.28689319112263        2.84338675477048       -4.70769819108185
C           11.94451999893005        1.68360411860810       -4.71231918754003
S            9.35485142240254        1.75711714712588       -3.11674019773556
S            6.50873348597659        1.20202091711791        0.16660983563080
Cl           0.11562223046468       -1.10190940734919        1.01449720132803
H            1.39567328101973        0.35669165045157        1.45024510264905
H            1.50073862974429        2.01781505545241        1.57643171024927
H            2.39803140268699        1.05220461700198        2.60252244912443
H            2.74786953523573        1.18181656314835       -0.33027019297183
H            3.73215524329991        0.24025009068122        0.78940165709374
H            4.46069754781517        2.35309848957871        1.92164750573476
H            3.51845375968514        3.29775631720078        0.74646000496378
H            4.74620100449716        3.87825337922059       -1.48432893865146
H            6.94313734998332        3.27844404470108       -2.74598613656664
H            8.97163214812687       -0.24821361614421       -0.14102556797291
H           11.23765373319788       -1.24243896606143       -0.10080063206369
H           12.44888704972341       -0.83265805260168       -1.32505508389719
H           11.26150092958004       -2.10899334009179       -1.63258621901998
H           12.36793836415333       -1.42467212864519       -3.50822766877493
H           14.14661913854465       -1.43191439700164       -5.11451595035191
H           13.84655565578490       -2.00555972327349       -7.34020289762077
H           15.45473786420290       -2.51244521013723       -6.80438098955311
H           15.09564829494667       -2.42045367868401       -8.52503016671678
H           16.93929210019785       -0.78435360458025       -9.11980815935767
H           17.38812120995933        1.79151229186059       -8.94797026146908
