  11
        -15.04894366
 N          1.4332885985       -0.5193379916        0.1008012773
 C          0.6856731858        0.7282668633       -0.2201094693
 C         -0.7636268064        0.6149652686        0.2371583218
 F         -1.2435934199       -0.5748115673       -0.1163906773
 H          2.3977376126       -0.4995106971       -0.2646892786
 H          0.9485919573       -1.3319103261       -0.3099736143
 H          1.4810940082       -0.6718539135        1.1188257934
 H          0.7116779686        0.8781251084       -1.3105378223
 H          1.1833548630        1.5997947335        0.2306128530
 H         -1.4149685182        1.3851171716       -0.2060029966
 H         -0.8557141519        0.6852328558        1.3316744081
  11
        -15.03993108
 N          1.9069456924       -0.0180942200        0.2855020758
 C          0.6067804024        0.0769358898       -0.4463663667
 C         -0.6225101041       -0.0788127797        0.4428273740
 F         -1.7413977875        0.0213814682       -0.2804065313
 H          2.7071421205        0.0913861784       -0.3547456598
 H          2.0084313453       -0.9313041492        0.7519527794
 H          1.9860074493        0.7144890647        1.0051471846
 H          0.5720768424       -0.6869076349       -1.2383636188
 H          0.5472567254        1.0436566618       -0.9690495465
 H         -0.6657827902        0.6971874343        1.2209431818
 H         -0.6438855922       -1.0577168518        0.9442112840
