  11
  -15.048943660000001       0.17200804339140624      !mtd1
 N          1.4332885985       -0.5193379916        0.1008012773
 C          0.6856731858        0.7282668633       -0.2201094693
 C         -0.7636268064        0.6149652686        0.2371583218
 F         -1.2435934199       -0.5748115673       -0.1163906773
 H          2.3977376126       -0.4995106971       -0.2646892786
 H          0.9485919573       -1.3319103261       -0.3099736143
 H          1.4810940082       -0.6718539135        1.1188257934
 H          0.7116779686        0.8781251084       -1.3105378223
 H          1.1833548630        1.5997947335        0.2306128530
 H         -1.4149685182        1.3851171716       -0.2060029966
 H         -0.8557141519        0.6852328558        1.3316744081
  11
  -15.048909090000000       0.16582938257079588      !mtd1
 N          1.4291291361       -0.5204276603       -0.1268528314
 C          0.6904567540        0.7297676299        0.2045478689
 C         -0.7687390025        0.6160846459       -0.2200467064
 F         -1.2392169556       -0.5759296559        0.1387973215
 H          2.4018871775       -0.4997619104        0.2159305907
 H          1.4526869929       -0.6789014406       -1.1452804035
 H          0.9532115185       -1.3295750815        0.2994608688
 H          1.1791564010        1.5985895532       -0.2617322247
 H          0.7413762635        0.8850455842        1.2930370837
 H         -0.8862650621        0.6912103152       -1.3115104199
 H         -1.4110537628        1.3833824637        0.2413962787
  11
  -15.048907770000000       0.16559791093775075      !mtd4
 N          1.4294855861       -0.5202583214       -0.1270260463
 C          0.6903348455        0.7295183732        0.2049278589
 C         -0.7686297047        0.6158793802       -0.2204830637
 F         -1.2395838745       -0.5757480987        0.1389707430
 H          0.9537609738       -1.3295291190        0.2987368138
 H          2.4028233766       -0.4997379904        0.2161733108
 H          1.4533521370       -0.6780009759       -1.1450249159
 H          1.1791646444        1.5988094301       -0.2602967991
 H          0.7404567362        0.8839186218        1.2935842161
 H         -0.8854404767        0.6904705884       -1.3120579030
 H         -1.4110049031        1.3836998570        0.2399970178
  11
  -15.048907549999999       0.16555936375666971      !mtd1
 N          1.4292787387       -0.5203434689       -0.1268991552
 C          0.6904279706        0.7296797432        0.2046413183
 C         -0.7686941237        0.6160097432       -0.2201682808
 F         -1.2393693650       -0.5758478011        0.1388309852
 H          1.4526071181       -0.6787604373       -1.1446221520
 H          0.9533191118       -1.3299420169        0.2996969059
 H          2.4023498561       -0.4996393537        0.2155745678
 H          1.1791716744        1.5986613665       -0.2612922438
 H          0.7411326111        0.8846572269        1.2931875788
 H         -0.8859998093        0.6906243720       -1.3117006092
 H         -1.4109790150        1.3836153403        0.2408021004
  11
  -15.048907340000000       0.16552257709068821      !mtd1
 N          1.4313700722       -0.5203732820        0.0993855611
 C          0.6863696030        0.7296976777       -0.2179558131
 C         -0.7643485815        0.6160603774        0.2348295930
 F         -1.2417525056       -0.5759036403       -0.1148159005
 H          1.4743588494       -0.6787813656        1.1164858926
 H          2.3980723664       -0.4996647056       -0.2621213132
 H          0.9475141722       -1.3295383563       -0.3178630326
 H          0.7161899257        0.8847554748       -1.3075606038
 H          1.1838281007        1.5984152260        0.2384422360
 H         -1.4152357530        1.3832413320       -0.2139989773
 H         -0.8606904331        0.6914386215        1.3286018048
  11
  -15.048906900000000       0.16544552676939328      !mtd3
 N          1.4312635325       -0.5204406144        0.0992698797
 C          0.6863979756        0.7297739895       -0.2178404208
 C         -0.7643901737        0.6161427289        0.2346580585
 F         -1.2416196095       -0.5759687792       -0.1147439981
 H          0.9474674944       -1.3293840709       -0.3179873779
 H          1.4739119180       -0.6791669460        1.1170383033
 H          2.3976338499       -0.4997271259       -0.2617029926
 H          0.7165227062        0.8851525320       -1.3073930484
 H          1.1838441894        1.5983374652        0.2388692563
 H         -1.4152740411        1.3832388469       -0.2143265613
 H         -0.8609358008        0.6916883047        1.3284097561
  11
  -15.039931080000001        1.2406628101816009E-005 !mtd2
 N          1.9069456924       -0.0180942200        0.2855020758
 C          0.6067804024        0.0769358898       -0.4463663667
 C         -0.6225101041       -0.0788127797        0.4428273740
 F         -1.7413977875        0.0213814682       -0.2804065313
 H          2.7071421205        0.0913861784       -0.3547456598
 H          2.0084313453       -0.9313041492        0.7519527794
 H          1.9860074493        0.7144890647        1.0051471846
 H          0.5720768424       -0.6869076349       -1.2383636188
 H          0.5472567254        1.0436566618       -0.9690495465
 H         -0.6657827902        0.6971874343        1.2209431818
 H         -0.6438855922       -1.0577168518        0.9442112840
  11
  -15.039930820000000        1.2403215127578928E-005 !mtd5
 N          1.9069631123       -0.0186824412        0.2854086025
 C          0.6067593888        0.0775106691       -0.4462574877
 C         -0.6225413763       -0.0768278135        0.4431534960
 F         -1.7413792432        0.0198348230       -0.2806540344
 H          2.0078531151       -0.9316586787        0.7509250757
 H          1.9866089260        0.7137741425        1.0058347339
 H          2.7073143746        0.0908500397       -0.3549854936
 H          0.5710778677       -0.6866534955       -1.2379180621
 H          0.5481954771        1.0440539476       -0.9693545516
 H         -0.6668618719        0.7014841919        1.2188994444
 H         -0.6429103388       -1.0542356329        0.9474749102
  11
  -15.039929480000000        1.2385640066589900E-005 !mtd2
 N          1.9069390021       -0.0193644590        0.2853051663
 C          0.6067400660        0.0782672312       -0.4461199912
 C         -0.6225879508       -0.0744914843        0.4435255084
 F         -1.7413276884        0.0180631179       -0.2809168593
 H          1.9876799282        0.7129697628        1.0047101256
 H          2.7076672577        0.0885687128       -0.3556626087
 H          2.0066918002       -0.9323090418        0.7515272803
 H          0.5700528087       -0.6862603530       -1.2373903004
 H          0.5492469271        1.0446027814       -0.9697060358
 H         -0.6681012450        0.7062784471        1.2166733675
 H         -0.6418113640       -1.0502196590        0.9510440439
