18
 energy: -29.263852636592 gnorm: 0.000858326770 xtb: 6.5.1 (fef0646)
N            1.09249039605332       -0.40896283490423       -0.46318776141444
C            2.54914665992175       -0.38901976619942       -0.35662252074391
C            2.96684734464688       -0.86542668065786        1.03121011230683
C            4.45718781222594       -0.65538223786797        1.28229660783897
C            4.92692105832310       -1.41924249877841        2.51016412416551
O            6.13096762260260       -1.04384135572552        2.98088885436195
O            4.31652199324448       -2.30585916947964        3.02727960048282
Cl           0.10214143492318        1.64613045095656        1.39083541546993
H            0.78530028774521       -0.15580334778063       -1.39574830457388
H            0.53519471172077        0.67453052336756        0.53513221703857
H            0.72773168838037       -1.32769460548996       -0.23361631657910
H            2.87026000216025        0.64477930984349       -0.50816674242381
H            3.03161280996467       -1.01329118382430       -1.12359768304192
H            2.73932594278919       -1.92688828610941        1.14557246348514
H            2.39171841030533       -0.31986731573612        1.77926071632216
H            4.67685484428003        0.40902603823806        1.39773423567218
H            5.03620621667204       -1.03065563592583        0.43140431710040
H            6.51894076404231       -0.31051140392584        2.48604066453142
