  43
        -67.84648088
 N         -5.7025960129        1.0657655458       -0.0608287538
 C         -5.4364416261        0.4942025112        1.2464629061
 C         -4.0741670611       -0.1866151203        1.2633898840
 O         -3.0529212876        0.7386636847        0.9272420610
 C         -1.7900289912        0.1950225004        0.7969237074
 C         -1.4694298297       -1.1384135281        1.0222246344
 C         -0.1810836887       -1.6054821093        0.8662785074
 C          0.8675833481       -0.7766130915        0.4775900329
 C          0.5876677299        0.5986900878        0.2381696758
 C          1.6141312266        1.5029792443       -0.1614141036
 C          1.2789516612        2.8312157951       -0.3792167543
 C         -0.0208630712        3.2899791336       -0.2175002007
 C         -1.0130002473        2.4307567990        0.1648999417
 C         -0.7361390314        1.0795979437        0.3993548745
 C          2.2277541691       -1.2717375720        0.3115716982
 C          2.5620390640       -2.6005723053        0.5299652425
 C          3.8628160259       -3.0631442586        0.3685364247
 C          4.8583685080       -2.2120160965       -0.0140658114
 C          4.5825564036       -0.8507050675       -0.2514042113
 C          5.5996726577        0.0404848022       -0.6474809045
 C          5.3170832080        1.3556657587       -0.8735638733
 C          4.0215294038        1.8360453810       -0.7164619590
 C          2.9794839454        1.0083046393       -0.3291047250
 C          3.2573756308       -0.3687661064       -0.0889841498
 Cl        -5.8469968099       -1.7154814392       -1.8869953572
 H         -4.9101674663        1.6423078807       -0.3211324115
 H         -5.7878784583       -0.5926208737       -1.1643502131
 H         -6.5142895935        1.6753026097       -0.0342415221
 H         -6.2317708668       -0.2157251655        1.5029546668
 H         -5.4571382739        1.2801721404        2.0125471564
 H         -4.0509274569       -0.9941547252        0.5244540222
 H         -3.8474703881       -0.6100397385        2.2484531892
 H         -2.2384655309       -1.8238771648        1.3294482156
 H          0.0078830343       -2.6466455241        1.0542134386
 H          2.0349121971        3.5329223166       -0.6809907793
 H         -0.2486700577        4.3286616110       -0.3944050273
 H         -2.0238792328        2.7778327082        0.2933778101
 H          1.8051575507       -3.3012313861        0.8316998656
 H          4.0853923406       -4.1028310514        0.5471852259
 H          5.8655359625       -2.5719887788       -0.1388090309
 H          6.6031302392       -0.3305932553       -0.7696163630
 H          6.1027881277        2.0289541981       -1.1764540057
 H          3.8373794965        2.8781128572       -0.9037211259
