  36
        -53.38952524
 N         -5.3079069222       -1.3426316449        0.9100534092
 C         -5.2899440003       -0.4907260585       -0.3077834612
 C         -4.1004349778        0.4538791901       -0.2847449652
 O         -2.8833924070       -0.2789779562       -0.2376720533
 C         -1.7614243414        0.4688492390       -0.1619860174
 C         -0.5065424196       -0.2388700267       -0.1368487966
 C         -0.4661769422       -1.6392282154       -0.2178981497
 C          0.7159279852       -2.3206039465       -0.1877275241
 C          0.7038507116        0.4808275235       -0.0323365764
 C          0.6943768637        1.8968362573        0.0368503443
 C         -0.5499507670        2.5702420239       -0.0055044603
 C         -1.7223327010        1.8908279182       -0.1018355241
 C          1.9213759990        2.5849785231        0.1423397933
 C          3.1077152071        1.9157032094        0.1785115837
 C          3.1541019256        0.4995971924        0.1091936732
 C          4.3568062770       -0.2164195182        0.1419079258
 C          4.3604171680       -1.5938852949        0.0693296671
 C          3.1823685483       -2.2997242264       -0.0379772200
 C          1.9487258337       -1.6338922878       -0.0747004318
 C          1.9367767374       -0.2188183072        0.0011989622
 H         -4.4075734383       -1.8258541734        0.9986465085
 H         -6.0562271743       -2.0448528987        0.8779406267
 H         -5.4353488210       -0.7698248924        1.7516496504
 H         -6.2318608068        0.0633053643       -0.3935296920
 H         -5.2205791759       -1.1304313348       -1.1948925708
 H         -4.1423439227        1.0915343454        0.6048626788
 H         -4.0775410098        1.0914986056       -1.1765725893
 H         -1.3990616469       -2.1674437472       -0.3127026120
 H          0.7222220434       -3.3949963128       -0.2510302240
 H         -0.5544749781        3.6458303587        0.0411922317
 H         -2.6424636125        2.4449439007       -0.1326395591
 H          1.9089549330        3.6602660919        0.1946906068
 H          4.0323168800        2.4608199314        0.2599406025
 H          5.2850558931        0.3223669560        0.2248139491
 H          5.2979000076       -2.1252124296        0.0964684963
 H          3.1994463670       -3.3744996950       -0.0951686795
