  36
        -53.27493992
 N         -4.7256351201        1.0478031018        1.4683562514
 C         -4.7619911463       -0.1450454972        0.5842013613
 C         -4.1606939165        0.1869394964       -0.7720842916
 O         -2.8555181139        0.7406954727       -0.6464000486
 C         -1.8435319950       -0.1362020768       -0.4599247816
 C         -0.5221670086        0.4274526933       -0.3267566986
 C         -0.3195229978        1.8124008339       -0.4028730349
 C          0.9294820420        2.3585548414       -0.2788126205
 C          0.5883732452       -0.4217268490       -0.1228332009
 C          0.4148914465       -1.8267747563       -0.0526267843
 C         -0.8900715122       -2.3577352908       -0.1949630173
 C         -1.9683110870       -1.5533885426       -0.3902741815
 C          1.5427697460       -2.6449476533        0.1504216289
 C          2.7935431446       -2.1106061492        0.2799035944
 C          3.0032638141       -0.7123303626        0.2127922246
 C          4.2734274435       -0.1348224190        0.3387882596
 C          4.4377651111        1.2334118574        0.2640134833
 C          3.3573483921        2.0654891717        0.0632217562
 C          2.0624306825        1.5408863190       -0.0689697005
 C          1.8861872455        0.1368391517        0.0080496835
 H         -5.0653858387        0.8425022809        2.4213036640
 H         -5.3023729287        1.8101466817        1.0820286690
 H         -3.7597865501        1.4019663840        1.5366855694
 H         -5.7918388758       -0.5078211335        0.4805694912
 H         -4.1961116045       -0.9550060785        1.0568654864
 H         -4.7603542071        0.9605921782       -1.2671505024
 H         -4.1314599796       -0.6653004414       -1.4603554159
 H         -1.1777366110        2.4420301232       -0.5709068543
 H          1.0614883529        3.4257909968       -0.3438198988
 H         -1.0177371088       -3.4268815256       -0.1496301759
 H         -2.9376941614       -2.0043785889       -0.5009898454
 H          1.4065019356       -3.7126408566        0.2017940520
 H          3.6424881689       -2.7559455083        0.4339864384
 H          5.1269948052       -0.7735641852        0.4946253140
 H          5.4251206675        1.6571078578        0.3629692535
 H          3.4996748218        3.1319381661        0.0048993041
