  21
        -29.76794382
 N         -3.3248171218        0.9818751559        1.0416266731
 C         -3.3944624556       -0.3559810769        0.3874480406
 C         -2.5170384005       -0.4531025840       -0.8605218479
 C         -1.0533236151       -0.2941726855       -0.5715721632
 C         -0.3970204910        0.9130757228       -0.8386795886
 C          0.9387648608        1.0650126692       -0.5682991802
 C          1.6642646477       -0.0028500381       -0.0121460088
 Cl         3.3095613869        0.1711046504        0.3187793361
 C          1.0124279189       -1.2176633525        0.2622786137
 C         -0.3238765217       -1.3509075858       -0.0150537665
 H         -3.9156005506        1.0254517329        1.8859869357
 H         -3.6449021626        1.7248070688        0.4029673934
 H         -2.3601323556        1.2078327719        1.3260054054
 H         -4.4404202915       -0.5752579508        0.1356978760
 H         -3.0951236380       -1.1247118148        1.1099843174
 H         -2.8269069975        0.3085385877       -1.5839888545
 H         -2.6754449213       -1.4134527916       -1.3654484553
 H         -0.9507315537        1.7287486578       -1.2743073448
 H          1.4491124101        1.9911126818       -0.7829674885
 H          1.5781310307       -2.0339030460        0.6843233093
 H         -0.8227356946       -2.2848195012        0.1875100662
  21
        -29.76459967
 N         -4.6506864332        0.2670490569        0.5981807832
 C         -3.1658274215        0.3123793939        0.7441247574
 C         -2.4320533173       -0.1695656852       -0.5042915207
 C         -0.9375333508       -0.1309863489       -0.3676164388
 C         -0.2205565875        1.0195864110       -0.7157785679
 C          1.1429391370        1.0699940996       -0.5785632814
 C          1.8356553518       -0.0455054504       -0.0767105009
 Cl         3.5136133962        0.0034356505        0.0921816399
 C          1.1225549200       -1.2023268601        0.2830030874
 C         -0.2407584780       -1.2341858668        0.1387679892
 H         -5.1292009884        0.5962743350        1.4503163978
 H         -4.9775694763       -0.6920170674        0.4101382135
 H         -4.9665082481        0.8602540075       -0.1835921574
 H         -2.8661722985       -0.2952804451        1.6063943461
 H         -2.8545926199        1.3363376601        0.9834685311
 H         -2.7334683501        0.4356169490       -1.3659179480
 H         -2.7480172729       -1.1897392103       -0.7468072076
 H         -0.7522689662        1.8740246179       -1.1019477791
 H          1.6982554794        1.9536815399       -0.8523371541
 H          1.6623089271       -2.0540332935        0.6672208756
 H         -0.7881265764       -2.1214478440        0.4129199805
  21
        -29.76215067
 N         -3.8790132094        1.2966017134       -0.0772799495
 C         -3.3776232042        0.1072612321        0.6744850821
 C         -2.4799476527       -0.8102773501       -0.1708740121
 C         -1.0047612390       -0.5188350792       -0.1040846912
 C         -0.5085480844        0.7697692483        0.1241886500
 C          0.8394160764        1.0180411186        0.1600930924
 C          1.7482824964       -0.0344310582       -0.0423592900
 Cl         3.4096584733        0.2562784997        0.0057948820
 C          1.2635327617       -1.3309136509       -0.2849509610
 C         -0.0885740237       -1.5573409656       -0.3161768148
 H         -4.4867435490        1.0073108948       -0.8578017727
 H         -3.1151052065        1.8555542333       -0.4825744405
 H         -4.4359807939        1.9217976479        0.5257477064
 H         -4.2493743575       -0.4499767281        1.0439986686
 H         -2.8403229390        0.4281697295        1.5750665496
 H         -2.8017894008       -0.7659281611       -1.2168011280
 H         -2.6326056469       -1.8526881388        0.1340861080
 H         -1.1966028802        1.5810750172        0.2813168108
 H          1.2192259205        2.0116633917        0.3406398896
 H          1.9667857892       -2.1335872271       -0.4454116286
 H         -0.4576314441       -2.5520074047       -0.5086498172
  21
        -29.76203511
 N         -3.9006031367       -1.0025710058        0.8270435613
 C         -3.3688915215        0.3729253521        0.5895069315
 C         -2.4808385577        0.4721548942       -0.6619992404
 C         -1.0039949589        0.3090342021       -0.4224333708
 C         -0.0922005401        0.9822321787       -1.2461641852
 C          1.2608900291        0.8393815781       -1.0750334541
 C          1.7508331924       -0.0009742579       -0.0609010356
 Cl         3.4134178930       -0.1816466362        0.1631657646
 C          0.8462497562       -0.6907462126        0.7642383985
 C         -0.5027200498       -0.5341603563        0.5755913189
 H         -4.4539887819       -1.0522331091        1.6959663270
 H         -3.1517287491       -1.7058674212        0.8956061777
 H         -4.5194565792       -1.2949473275        0.0559338651
 H         -2.8134997788        0.7197967200        1.4692422221
 H         -4.2253292905        1.0557050483        0.5035108816
 H         -2.6408339305        1.4419392534       -1.1486461473
 H         -2.8045435277       -0.2743190438       -1.3950839864
 H         -0.4650107676        1.6222315245       -2.0296713888
 H          1.9608721736        1.3614187870       -1.7090525002
 H          1.2303828636       -1.3384457237        1.5370226474
 H         -1.1883562458       -1.0658743646        1.2109719629
  21
        -29.76190618
 N         -3.9245185992        1.2442326779        0.4584454412
 C         -3.3944252255        0.1762231345       -0.4410877532
 C         -2.4596431697       -0.8126880425        0.2769420893
 C         -0.9903201896       -0.5237449371        0.1305627612
 C         -0.4905048933        0.7823773859        0.1748991991
 C          0.8529532693        1.0344336896        0.0687813238
 C          1.7532847804       -0.0341929196       -0.0812778707
 Cl         3.4085345797        0.2622930023       -0.2196249574
 C          1.2653583921       -1.3516548798       -0.1154551665
 C         -0.0822243069       -1.5816756459       -0.0079181192
 H         -3.1730642867        1.7772509806        0.9181003348
 H         -4.5085892630        0.8392187412        1.2048656884
 H         -4.5125932268        1.9181858630       -0.0559448134
 H         -2.8737857400        0.6281427487       -1.2941161296
 H         -4.2513018081       -0.3558244183       -0.8767173611
 H         -2.6473833315       -1.8291903761       -0.0894372456
 H         -2.7106668872       -0.8412693463        1.3425978049
 H         -1.1742444028        1.6045044390        0.2902166056
 H          1.2356333890        2.0427417839        0.0999392501
 H          1.9630239953       -2.1678898174       -0.2234709306
 H         -0.4524604641       -2.5941233370       -0.0265814948
  21
        -29.76171140
 N         -4.7283825634        0.4368511246        0.2155297152
 C         -3.2687616444        0.7311083244        0.1033931906
 C         -2.4035010594       -0.5195273732        0.2474078829
 C         -0.9170045106       -0.3200137257        0.1118766354
 C         -0.3277747872        0.9443460882       -0.0201330512
 C          1.0320049974        1.0849803467       -0.1319343629
 C          1.8572624213       -0.0521355372       -0.1124717441
 Cl         3.5313408599        0.1105285130       -0.2467731297
 C          1.2784036981       -1.3251868362        0.0227447274
 C         -0.0830208346       -1.4450630968        0.1328172616
 H         -5.2990539255        1.2903895510        0.1188724650
 H         -4.9542757630        0.0149660420        1.1282521504
 H         -5.0329936262       -0.2235381900       -0.5151981473
 H         -2.9925515055        1.4661448613        0.8685171218
 H         -3.0724553790        1.2096247554       -0.8634904793
 H         -2.7234861457       -1.2569993433       -0.4965685141
 H         -2.6056464275       -0.9830741240        1.2190130275
 H         -0.9480895167        1.8244118491       -0.0344712613
 H          1.4846612927        2.0591178573       -0.2340139143
 H          1.9175907778       -2.1944647489        0.0398670564
 H         -0.5258919762       -2.4223656845        0.2392974074
