  21
        -29.88463934
 N         -3.2911528995       -0.8876474635       -1.1457901399
 C         -3.3861775064        0.3792779032       -0.3620154840
 C         -2.5227312092        0.3629611906        0.8992327912
 C         -1.0571622596        0.2382921811        0.6066477891
 C         -0.3498179436        1.3220521730        0.0779691552
 C          0.9844289871        1.2178617307       -0.2146062342
 C          1.6564912591        0.0065312590        0.0179561910
 Cl         3.3043164495       -0.1347630113       -0.3413986802
 C          0.9538547622       -1.0866368055        0.5506631032
 C         -0.3805858880       -0.9637632980        0.8363520071
 H         -2.3204234891       -1.0670620572       -1.4252390752
 H         -3.8626797297       -0.8457607453       -1.9968100721
 H         -3.6123356180       -1.6857201239       -0.5868985996
 H         -4.4365794387        0.5601733541       -0.1024392908
 H         -3.0871933824        1.2173409842       -1.0018907640
 H         -2.8346225608       -0.4640606164        1.5447026831
 H         -2.6882324555        1.2714675357        1.4894564194
 H         -0.8653052365        2.2516630668       -0.0946202506
 H          1.5322956324        2.0518191199       -0.6211767392
 H          1.4789808726       -2.0103519600        0.7293307788
 H         -0.9173816132       -1.7997919019        1.2514368268
