  21
        -29.88463934
 N         -3.2911528995       -0.8876474635       -1.1457901399
 C         -3.3861775064        0.3792779032       -0.3620154840
 C         -2.5227312092        0.3629611906        0.8992327912
 C         -1.0571622596        0.2382921811        0.6066477891
 C         -0.3498179436        1.3220521730        0.0779691552
 C          0.9844289871        1.2178617307       -0.2146062342
 C          1.6564912591        0.0065312590        0.0179561910
 Cl         3.3043164495       -0.1347630113       -0.3413986802
 C          0.9538547622       -1.0866368055        0.5506631032
 C         -0.3805858880       -0.9637632980        0.8363520071
 H         -2.3204234891       -1.0670620572       -1.4252390752
 H         -3.8626797297       -0.8457607453       -1.9968100721
 H         -3.6123356180       -1.6857201239       -0.5868985996
 H         -4.4365794387        0.5601733541       -0.1024392908
 H         -3.0871933824        1.2173409842       -1.0018907640
 H         -2.8346225608       -0.4640606164        1.5447026831
 H         -2.6882324555        1.2714675357        1.4894564194
 H         -0.8653052365        2.2516630668       -0.0946202506
 H          1.5322956324        2.0518191199       -0.6211767392
 H          1.4789808726       -2.0103519600        0.7293307788
 H         -0.9173816132       -1.7997919019        1.2514368268
  21
        -29.88309724
 N         -4.6338347264       -0.2457570740       -0.6507390209
 C         -3.1443321196       -0.2756335744       -0.7691653601
 C         -2.4351534251        0.1359936962        0.5176486409
 C         -0.9404174310        0.1124591665        0.3916064982
 C         -0.2504910532        1.2353978557       -0.0752811699
 C          1.1108994610        1.2126157411       -0.2263347537
 C          1.8276103655        0.0454773410        0.0860859702
 Cl         3.5095573106        0.0050629576       -0.0973819331
 C          1.1408595723       -1.0891369629        0.5484493356
 C         -0.2209736304       -1.0478004812        0.6930074427
 H         -4.9576619016        0.6962419466       -0.4112723968
 H         -4.9511772199       -0.8855079572        0.0839580143
 H         -5.0826110400       -0.5227520570       -1.5296482340
 H         -2.8315024742        0.3828051694       -1.5876949396
 H         -2.8220080523       -1.2819151190       -1.0608919632
 H         -2.7412969169       -0.5212760537        1.3374836448
 H         -2.7581244480        1.1381576141        0.8162519715
 H         -0.8020485349        2.1281925766       -0.3170487745
 H          1.6461023696        2.0767101138       -0.5838308382
 H          1.6987965280       -1.9807005827        0.7822216625
 H         -0.7496850593       -1.9178690471        1.0439042247
  21
        -29.88009589
 N         -4.1369273067        0.1589311918       -1.1983031431
 C         -3.2489057338       -0.6530422744       -0.3125989352
 C         -2.4682984072        0.2030572231        0.7043592876
 C         -0.9823736986        0.1517082458        0.4990129144
 C         -0.3179416598        1.1743558375       -0.1848655892
 C          1.0339988757        1.1154466045       -0.3983978851
 C          1.7667138249        0.0121815311        0.0699863821
 Cl         3.4363313062       -0.0729467331       -0.1923848196
 C          1.1057985056       -1.0213900553        0.7536988588
 C         -0.2467725804       -0.9447311532        0.9582117032
 H         -4.6358432582       -0.4334313742       -1.8700462589
 H         -3.5905791094        0.8457759105       -1.7281780143
 H         -4.8340799265        0.6662470919       -0.6438106070
 H         -2.5427235703       -1.2161338476       -0.9349001523
 H         -3.8546956867       -1.4117011199        0.1993685838
 H         -2.6945760391       -0.1061345774        1.7313324919
 H         -2.8054129872        1.2424990644        0.6433522520
 H         -0.8802737624        2.0197221335       -0.5429672936
 H          1.5499379771        1.9030710491       -0.9222438428
 H          1.6761207013       -1.8639170953        1.1082560278
 H         -0.7565101345       -1.7366470541        1.4805505053
  21
        -29.87972541
 N         -3.9515774010       -1.2162607086       -0.5374533654
 C         -3.3819726641       -0.2231258640        0.4251742939
 C         -2.4585277224        0.8092389850       -0.2462550635
 C         -0.9882843083        0.5235041769       -0.1098746485
 C         -0.0873803153        1.5776062582        0.0795797919
 C          1.2595001479        1.3485279223        0.1819114554
 C          1.7528695561        0.0368525761        0.0903224457
 Cl         3.4142774276       -0.2591124969        0.2186753124
 C          0.8590272476       -1.0271368665       -0.1106992725
 C         -0.4838639916       -0.7760454092       -0.2109965967
 H         -4.5057740782       -1.9305155400       -0.0527082250
 H         -3.2168436269       -1.6950846654       -1.0692609631
 H         -4.5645054757       -0.7491785023       -1.2142628344
 H         -2.8383961901       -0.7438886665        1.2223171731
 H         -4.2177520499        0.2804591631        0.9283437655
 H         -2.6556960947        1.8051355235        0.1671027406
 H         -2.7059950216        0.8843844089       -1.3097029726
 H         -0.4627147970        2.5851168888        0.1427249551
 H          1.9528372668        2.1599317776        0.3300280229
 H          1.2457241264       -2.0301572322       -0.1843136688
 H         -1.1635548622       -1.5939943725       -0.3649583902
