23
 energy: -32.857974200470 gnorm: 0.000489000028 xtb: 6.5.1 (fef0646)
N            1.26815075383342       -0.51974813713708       -0.21126614949417
C            2.70439496742298       -0.19286360878189       -0.05668430774321
C            3.11595477046704        0.94099133151747       -0.95613092941024
C            2.41691805766646        2.14385801615833       -0.93658089767361
C            2.79642481224604        3.18865322686282       -1.75468030444715
C            3.88958606338211        3.06795973576412       -2.61489767007952
C            4.33160405937228        4.14517747154199       -3.49296729495184
C            3.93203699852127        5.41078813265823       -3.45205330378890
C            4.58095191400512        1.85595148975946       -2.62998441575451
C            4.20089225982654        0.80914655667267       -1.81282586009168
Cl          -0.62259239139574        1.49223878674905        1.11674105297277
H            1.03360256019703       -1.37553864531865        0.29765346042638
H            1.02365572804155       -0.62841871319441       -1.19870614296183
H            0.65723550728282        0.23577182532981        0.18852856830540
H            3.30091373141474       -1.07565227047979       -0.28980879259833
H            2.87679899977647        0.09065962776208        0.98334861502066
H            1.56908648645875        2.26481444996192       -0.27865518004354
H            2.23032184855105        4.10693848543622       -1.72882486210916
H            5.07119936835929        3.85265983310960       -4.22857571518570
H            3.21517134097480        5.77130822212115       -2.73385190500464
H            4.31763710692501        6.14349821993146       -4.13966926952301
H            5.42766916909437        1.74026801315700       -3.29078684945974
H            4.75666588742338       -0.11579204959643       -1.84189184647584
