18
 energy: -25.499892972726 gnorm: 0.000494578528 xtb: 6.5.1 (fef0646)
N            1.08293725759591        0.01773631553340        0.48757620267283
C            2.55247322346636       -0.07786039211804        0.58630182761295
C            3.02285403951005       -1.41473807779057        0.02421804580290
C            4.54910674668287       -1.47342143302382       -0.05514231100463
C            4.98530086366032       -2.79264656949670       -0.65868101356017
I            7.15330775731048       -2.94706508051658       -0.80187655202497
Cl           0.32853671974055       -0.52735834140416       -2.42452980382100
H            0.74730889624665        0.93968259897592        0.77430922243467
H            0.62723883079780       -0.70580018404404        1.04868998867697
H            0.79091437372501       -0.13795164162716       -0.51207982321089
H            2.85982531840296        0.02864776397150        1.62723953189390
H            2.99061576944896        0.72863692419723       -0.00105047741982
H            2.59747927934827       -1.53560734784516       -0.97384244328729
H            2.66343440903309       -2.23467444512109        0.64669719147253
H            4.97750612925569       -1.36328681440195        0.94326059340442
H            4.91434700988851       -0.65066795609256       -0.67282467561855
H            4.61200004294358       -2.91074048167130       -1.67249250327951
H            4.67247333294268       -3.63951483752496       -0.05371300074457
