25
 energy: -37.174018061923 gnorm: 0.000353666234 xtb: 6.5.1 (fef0646)
N            0.99509948619734        0.11549001176636       -0.03184450364396
C            2.37214519770848       -0.41522115377870        0.09172747124048
C            2.93906142837111       -0.17257436564577        1.46591042076905
C            3.51394972420124       -1.23879922296727        2.18445223641877
C            4.03603097921623       -1.04121467980074        3.43143894350586
C            2.90506152969860        1.07985717353456        2.02458180853928
C            3.42743770244184        1.31303280856607        3.31228945685083
C            4.00483239845213        0.23416546313758        4.03266672928922
C            4.52502538719610        0.47401911392281        5.32163270511665
C            4.47610511721203        1.72418139892058        5.87168154449361
C            3.90526650157614        2.79205869855119        5.15934339441851
C            3.39271988655707        2.59136107915316        3.90860452746381
Cl           0.86763938073919        3.17001784168168       -0.27242256269872
H            0.56868766724219       -0.18196578056624       -0.91260947019842
H            0.99013971133730        1.16607726746145       -0.04164791944370
H            0.41419686819712       -0.18918663317080        0.75318775857273
H            2.99612419475310        0.08565500394055       -0.65095861587417
H            2.36395288258576       -1.48641124973655       -0.11348856976159
H            3.54392234582399       -2.22137544971852        1.73875137097994
H            4.47722477741283       -1.86066867657268        3.97953796084355
H            2.47482105523948        1.91271845463832        1.48709222087769
H            4.96325584041417       -0.34916527243176        5.86739608293113
H            4.87553592252401        1.90287317088398        6.85913768014141
H            3.87496892109133        3.77338564644193        5.61014884723361
H            2.95016509381091        3.40689935178184        3.35321048193265
