23
 energy: -23.497760375715 gnorm: 0.000463053923 xtb: 6.5.1 (fef0646)
N            0.92653852510125       -0.05016692736888        0.07465150993617
C            2.42585419076778       -0.03562935657016        0.08541039552427
C            2.94191161423612        1.18884807871750        0.82553395525171
C            4.47343060196848        1.21232976264228        0.84013635523123
C            5.00668614853205        2.43776378844542        1.58070635038561
C            6.53376849820280        2.46956557672399        1.59991668639981
C            7.05659394205104        3.69425750625951        2.33985535544868
H            0.55941274345646       -0.87161973977500       -0.42179646027353
H            0.57608994659741        0.80109348063915       -0.38459270466683
H            0.57418023309231       -0.05970184313337        1.04114816873535
H            2.77752298622872       -0.03204743143501       -0.94706301417338
H            2.77553921081382       -0.94815923454546        0.56986214205922
H            2.58127544843532        1.18307539487302        1.85596059071933
H            2.58174276485144        2.09848939298669        0.34105855273956
H            4.84723453182230        1.22076354775236       -0.18482612249125
H            4.84686320022189        0.30880221383858        1.32441546741936
H            4.63626123464334        2.43205038587664        2.60781183763761
H            4.63627713708797        3.34442479090109        1.09804545754321
H            6.90820962373295        2.47740363173305        0.57447128144886
H            6.90822163350749        1.56545527129208        2.08382980616521
H            6.71143810106762        4.60761653031374        1.86115634615902
H            8.14281252418384        3.69908346258238        2.34268408150817
H            6.71155515939757        3.69529171725042        3.37109396129260
