  26
        -37.92931771
 N         -2.2249182690        0.4798109876       -0.7429233129
 C         -2.0148002478        1.1472853357        0.5312711008
 C         -0.7689539376        2.0310508816        0.5435098340
 C          0.4847151025        1.2556330550        0.2711971726
 C          1.0664190404        0.4836724702        1.2658195907
 C          2.1917653981       -0.2687773824        1.0140573657
 C          2.7759599223       -0.2795951250       -0.2536768173
 O          3.9130215124       -1.0114260412       -0.5996153236
 C          4.4685467717       -1.7699607495        0.4470589798
 C          2.1797400758        0.4953877895       -1.2504640389
 C          1.0560807498        1.2453789149       -0.9932597302
 Cl        -4.9439076935       -1.3178045245       -0.0486354514
 H         -2.3066517320        1.1728121735       -1.4793487131
 H         -1.4019189964       -0.0660726036       -0.9724111881
 H         -3.8521849802       -0.5987011288       -0.3341158144
 H         -1.9390626533        0.3841715305        1.3162436280
 H         -2.9104075257        1.7312366685        0.7776429471
 H         -0.6712561654        2.5462734966        1.5056537812
 H         -0.8731707795        2.8232749896       -0.2052688232
 H          0.6217575060        0.4759643236        2.2468807094
 H          2.6216558650       -0.8565181849        1.8049518771
 H          4.7743477619       -1.1121941562        1.2612476522
 H          5.3469539017       -2.2934632308        0.0666098741
 H          3.7434303401       -2.5055540981        0.7988338103
 H          2.6232689149        0.4894552912       -2.2306337107
 H          0.6074205943        1.8306681857       -1.7780640839
