  21
        -32.48847021
 N         -0.8200465231       -0.9589016498        1.3593255996
 C         -0.7361517555       -2.1641690596        0.4904947507
 C         -0.3775137997       -1.8484144040       -0.9606078920
 C          1.0040645513       -1.1989195106       -1.1325189174
 C          1.0265556048        0.3251924253       -0.8849425409
 C          2.0412046723        0.7187302057        0.1549418592
 O          3.1413443238        1.3727890979       -0.2851288899
 O          1.8475293922        0.4311328532        1.3165076144
 Cl        -2.9964432738        1.3025592189       -0.1754902243
 H         -1.5035926444       -0.2835425039        0.9789982755
 H          0.0995926789       -0.4808979575        1.4017195506
 H         -1.1003353785       -1.1906614884        2.3207632455
 H         -1.6925037305       -2.6999568442        0.5318421046
 H          0.0046091684       -2.8559368073        0.9079176369
 H         -1.1408032438       -1.1945409566       -1.3957602957
 H         -0.4250133355       -2.7739065952       -1.5488058842
 H          1.3975379562       -1.4110022650       -2.1353967471
 H          1.7121920484       -1.6852642730       -0.4513577052
 H          0.0418262929        0.6775837808       -0.5657511263
 H          1.2439022308        0.8725081798       -1.8081878485
 H          3.7136266112        1.5627289406        0.4720256694
