21
 energy: -32.484967642915 gnorm: 0.000469256967 xtb: 6.5.1 (fef0646)
N            0.97337524332779       -0.25041596332484       -0.24239110036107
C            2.44647069625817       -0.25377559828036       -0.14181647003963
C            3.04929957267064       -1.39916608350387       -0.94788037431427
C            4.57378956044710       -1.38839372655688       -0.85126747912611
C            5.19054522277924       -2.55457172823982       -1.62169334877979
C            6.69772274794171       -2.52986922375211       -1.57630344005871
O            7.31531321469163       -3.55693739615736       -2.16536801533355
O            7.35025423943003       -1.65423078729851       -1.05718550256031
Cl          -0.13690827874277        1.93938009880221        1.55400308561101
H            0.57139640166163        0.51421423783786        0.35825802248711
H            0.58272207255218       -1.13552930005299        0.08966521780734
H            0.66987419358004       -0.08366113550337       -1.20451599407882
H            2.71994211207572       -0.34222912716455        0.90921317701772
H            2.82154969040146        0.70414659404568       -0.50060850928280
H            2.76005513985715       -1.30653399590968       -1.99522702940196
H            2.67716228938665       -2.35108545024377       -0.56735155030382
H            4.88444409254226       -1.44834258404903        0.19285508966925
H            4.97118679067197       -0.45250171716077       -1.24661067948206
H            4.88602917663447       -2.51060386194325       -2.67039836484678
H            4.84679935797742       -3.50362902792066       -1.20458251886217
H            6.70771646385576       -4.21130422362380       -2.55621421576139
