  16
        -21.11071602
 N          0.3084193702        1.7034301719       -0.0001947490
 C          1.4306151584        0.7643005470        0.0014543563
 C          1.3449304718       -0.3362031340       -1.0856302026
 C          1.6626937936       -1.3893039789       -0.0000073345
 C          1.3409026674       -0.3370732166        1.0855334396
 Cl        -2.3759205083       -0.2643884802       -0.0004275625
 H          0.3763073685        2.3051553283        0.8122104588
 H         -1.3070510339        0.5377189419       -0.0003430077
 H          0.3770098476        2.3057207467       -0.8127139094
 H          2.4088115624        1.2748114824        0.0035064580
 H          2.0962418882       -0.2506776714       -1.8816723914
 H          0.3385620005       -0.4231856111       -1.5110729959
 H          2.7118288561       -1.7122364641        0.0017729920
 H          0.9941278022       -2.2609830475       -0.0016340451
 H          2.0889735008       -0.2527374904        1.8845066820
 H          0.3331825801       -0.4246995501        1.5070948897
