  16
  -21.110716020000002       0.46808270552617542      !input
 N          0.3084193702        1.7034301719       -0.0001947490
 C          1.4306151584        0.7643005470        0.0014543563
 C          1.3449304718       -0.3362031340       -1.0856302026
 C          1.6626937936       -1.3893039789       -0.0000073345
 C          1.3409026674       -0.3370732166        1.0855334396
 Cl        -2.3759205083       -0.2643884802       -0.0004275625
 H          0.3763073685        2.3051553283        0.8122104588
 H         -1.3070510339        0.5377189419       -0.0003430077
 H          0.3770098476        2.3057207467       -0.8127139094
 H          2.4088115624        1.2748114824        0.0035064580
 H          2.0962418882       -0.2506776714       -1.8816723914
 H          0.3385620005       -0.4231856111       -1.5110729959
 H          2.7118288561       -1.7122364641        0.0017729920
 H          0.9941278022       -2.2609830475       -0.0016340451
 H          2.0889735008       -0.2527374904        1.8845066820
 H          0.3331825801       -0.4246995501        1.5070948897
  16
  -21.109563680000001       0.13827504175860914      !input
 N          0.1387888854        1.0284816972       -0.9238538506
 C          1.0146521223        0.3468832095        0.0275035517
 C          2.4944046096        0.2191753948       -0.4128393983
 C          2.4492889621       -1.2733559947       -0.0127883891
 C          0.9055996250       -1.1972487983        0.0163141552
 Cl        -2.7344824565        0.2803512370        0.5778333438
 H          0.4321171279        1.9945295184       -1.0117958035
 H         -1.5837251983        0.5861580104       -0.0293997895
 H          0.2671115778        0.6154873782       -1.8395122819
 H          0.9066943865        0.7640174609        1.0421675947
 H          3.1967001700        0.8324130561        0.1669193790
 H          2.6288078502        0.3882506111       -1.4876054492
 H          2.8948688101       -1.4757307824        0.9698125202
 H          2.8579139342       -1.9603301171       -0.7664244562
 H          0.4372254717       -1.6273549831        0.9111390211
 H          0.4226341412       -1.5753454202       -0.8919620427
  16
  -21.109539229999999       0.13474335486149386      !mtd2
 N          0.1390502463        1.0317119238        0.9231925864
 C          1.0161508631        0.3498583075       -0.0268445072
 C          0.9035066854       -1.1952882241       -0.0182069411
 C          2.4468385757       -1.2736841643        0.0136301021
 C          2.4932118746        0.2181329370        0.4168633473
 Cl        -2.7328975338        0.2775734263       -0.5789660446
 H          0.2645603691        0.6194246568        1.8398693724
 H         -1.5828086928        0.5859541260        0.0283206841
 H          0.4337410893        1.9970968431        1.0106125055
 H          0.9116557660        0.7684526190       -1.0412785791
 H          0.4358951510       -1.6230522445       -0.9147713829
 H          0.4180881682       -1.5737280120        0.8888686099
 H          2.8939863332       -1.4745754059       -0.9685669978
 H          2.8530250636       -1.9628640657        0.7665787641
 H          3.1983068042        0.8311650021       -0.1593816050
 H          2.6250118056        0.3845567162        1.4921612746
  16
  -21.109307179999998       0.10540581243555808      !mtd2
 N          0.2924736868        1.6661199643        0.0005826784
 C          1.5012036041        0.8427466930        0.0013657996
 C          1.5201142617       -0.2610160764       -1.0866137385
 C          1.1518669385       -1.2966479019        0.0000256545
 C          1.5184473303       -0.2610569473        1.0875300179
 Cl        -2.3317128252       -0.3732243001       -0.0011604038
 H          0.3026179639        2.2719728170        0.8129950611
 H         -1.2824953564        0.4549409015       -0.0004083863
 H          0.3025830408        2.2735037620       -0.8112855142
 H          2.4180714680        1.4580008033        0.0021557956
 H          2.5070932754       -0.4202698297       -1.5390770738
 H          0.7535835878       -0.1194297406       -1.8584106884
 H          1.7800595198       -2.1978354527        0.0004895236
 H          0.0904198704       -1.5753560135       -0.0008630493
 H          2.5045357009       -0.4205787831        1.5414220115
 H          0.7509543182       -0.1201214817        1.8582012953
  16
  -21.108637730000002        5.1904694787096216E-002 !mtd4
 N          0.1295633355        0.7444702589       -1.0556322286
 C          1.0310814701        0.4116837197        0.0447854637
 C          2.5197835124        0.2605294453       -0.3585391128
 C          2.3321157483       -1.2736370560       -0.3390410874
 C          1.0161803368       -1.0829860117        0.4491458935
 Cl        -2.7435235140        0.3261589002        0.5690939664
 H          0.3637087336        1.6646779366       -1.4090758869
 H         -1.5928424257        0.4986626978       -0.0887879699
 H          0.2984215655        0.1021635445       -1.8205343829
 H          0.8740393549        1.0892028197        0.9011275623
 H          3.2218661458        0.6327683420        0.3981749317
 H          2.7504278809        0.6802273640       -1.3455921666
 H          3.1137925432       -1.8217206782        0.2046724352
 H          2.1853321343       -1.7091121501       -1.3360032514
 H          1.1151052359       -1.2496412740        1.5290518500
 H          0.1570629966       -1.6328737298        0.0459050655
  16
  -21.108634639999998        5.1735252844336561E-002 !mtd2
 N          0.1288207236        0.7430728839        1.0597093420
 C          1.0268810693        0.4087062712       -0.0429755452
 C          1.0142826238       -1.0886966551       -0.4421249393
 C          2.3368807646       -1.2712580813        0.3365487278
 C          2.5167159440        0.2640786459        0.3535684592
 Cl        -2.7415821424        0.3277196771       -0.5713459446
 H          0.3007987319        0.1026298383        1.8253149679
 H         -1.5921957383        0.4989248933        0.0891158173
 H          0.3628152063        1.6642967525        1.4109136973
 H          0.8638649736        1.0823736523       -0.9012069230
 H          1.1049587488       -1.2589171180       -1.5223668676
 H          0.1604144074       -1.6403577287       -0.0297350270
 H          3.1176645319       -1.8152499052       -0.2125066151
 H          2.1998154670       -1.7069639383        1.3347892724
 H          3.2138863008        0.6391688978       -0.4060187403
 H          2.7493656845        0.6858577503        1.3390159457
  16
  -21.108599620000000        4.9853137786730700E-002 !mtd4
 N          0.1298585260        0.7459613968        1.0593385935
 C          1.0277627817        0.4113734112       -0.0435219929
 C          1.0126104273       -1.0856035737       -0.4441645872
 C          2.3315573269       -1.2718997720        0.3396696351
 C          2.5169835162        0.2627828751        0.3538490599
 Cl        -2.7397706896        0.3250512910       -0.5714980694
 H          0.3651872758        1.6665984515        1.4108673097
 H         -1.5906474223        0.4986221625        0.0887938872
 H          0.3008040561        0.1046051040        1.8245563005
 H          0.8665460433        1.0863815561       -0.9010723796
 H          1.1076521229       -1.2550737979       -1.5241527522
 H          0.1554770534       -1.6353179285       -0.0359356495
 H          3.1120045003       -1.8204854365       -0.2053013270
 H          2.1891389404       -1.7045354120        1.3384982177
 H          3.2154964328        0.6335358942       -0.4066415637
 H          2.7512591044        0.6855965975        1.3384895992
