22
 energy: -34.329355145279 gnorm: 0.000564036452 xtb: 6.5.1 (fef0646)
N            1.08523446366819       -0.25234506406608       -0.32912292232235
C            2.54978364920816       -0.42813277079199       -0.29125766786192
C            3.00809428392355       -0.60779271732596        1.15754721385855
C            4.49876152763834       -0.46473127580407        1.26403878315376
C            5.07258026996104        0.80217350575596        1.26215766913350
C            6.44373251907289        0.96330773055426        1.33864211496698
C            7.24366549144726       -0.16281542885037        1.41590462730629
Br           9.15799158801454        0.04799578140603        1.52743680764975
C            6.70270338854396       -1.43498389475973        1.41770362679385
C            5.32778494562405       -1.57666536470659        1.33899621750365
Cl           0.45159263829466        2.14412577992748        1.46307362207233
H            0.75200163038482       -0.07296560344799       -1.27890103950266
H            0.82282039509894        0.57515159442517        0.26772198915977
H            0.60738970793339       -1.06977146983063        0.05808077130299
H            3.01734828314664        0.46566858745613       -0.70335459980902
H            2.83666542940890       -1.29191324116031       -0.89170153738741
H            2.70387984719609       -1.58328741151065        1.53414241578344
H            2.52789981816776        0.16795235177992        1.75721121159700
H            4.43833985957377        1.67474597976481        1.21402354474674
H            6.88507901447294        1.94774388282495        1.34191153946198
H            7.34533117841555       -2.29879646226199        1.48168557998545
H            4.90375007081183       -2.56839448935935        1.34556003241427
