50
 energy: -83.610659951808 gnorm: 0.000659424403 xtb: 6.5.1 (fef0646)
N            1.39118422323146        0.11048306819919       -2.49458808837771
C            2.60488043473566       -0.04484713021346       -1.70111309470820
C            3.71343231048946       -0.81037810683476       -2.43079084290833
C            4.95110911197456       -0.97452543100512       -1.61211459010189
C            5.23488997769884       -0.51939052372659       -0.36011628691007
C            6.52204480291938       -0.87284224301081        0.08516401828326
C            7.23436410416352       -1.60456822371754       -0.83041599523624
C            8.55637923101090       -2.12811960977338       -0.71124122858873
C            9.43006102789630       -1.97046143132139        0.33878238605383
C           10.66113591769261       -2.62136961204682        0.16294100387092
C           11.75320857699156       -2.51079268023134        1.17757021365035
C           10.73373907503795       -3.29281166226358       -1.04435511029006
C           11.79056626990296       -4.09746318821644       -1.59915951154037
C           12.75042586606344       -4.75640739680449       -0.84973565659829
C           13.76452169883271       -5.53191010997559       -1.42081577528917
C           13.89257913229021       -5.72359923479893       -2.78451012246180
C           14.93016780283428       -6.52276573361406       -3.39107333925854
C           15.57742627399431       -7.63868126114171       -2.90912520250778
C           15.28431248282807       -8.33745632559230       -1.62101454672155
C           16.55063763195003       -8.11942886089799       -3.81531410252535
C           16.63670524905795       -7.38388733291326       -4.95326593497084
S           15.51290546292135       -6.08955206815254       -4.97421034087433
C           12.92903387315972       -5.06689554924738       -3.59176822130638
N           12.83865520917543       -5.10264185182767       -4.91962693423941
S           11.57447573600976       -4.22643829900801       -5.38235606071644
N           11.07442875932698       -3.75974160603577       -3.92712732595243
C           11.88299467465074       -4.27567232657469       -3.00500930075997
S            9.27619617544186       -3.07749713942486       -1.97163448464601
S            6.29142044527031       -1.86171187172791       -2.27118454322780
Cl          -0.60839396989469        1.67096923307585       -0.98991295162206
H            0.31046327279953        0.94851445473338       -1.68022485085763
H            0.99353906455619       -0.79335745641670       -2.72897140283544
H            1.58538132371685        0.60841005459531       -3.35747079379996
H            2.33399310856056       -0.56929534147416       -0.78268563645192
H            2.95548978256679        0.95509105815586       -1.43805498150100
H            3.96693808256921       -0.28307820822595       -3.35775470597598
H            3.34217033769855       -1.80098547599577       -2.71704142761752
H            4.54949399145491        0.05360499148922        0.23729005874693
H            6.90858752678547       -0.59859544708869        1.04945177896660
H            9.19610581483343       -1.39559195694533        1.21697603586517
H           11.61052689702040       -1.60809620218966        1.76777629492595
H           12.72872785472961       -2.46575981500799        0.69816347825052
H           11.73851203642319       -3.36123573131116        1.86022744714680
H           12.71257413600056       -4.69830482957429        0.22484435251394
H           14.48870473802757       -5.97776999847829       -0.75878976199126
H           14.23604017906136       -8.23252013095806       -1.34970080665902
H           15.89455311891371       -7.93333881909884       -0.81224446579171
H           15.51915069170184       -9.39550351252612       -1.71776633795179
H           17.15804164881297       -8.98514761507534       -3.61708394586196
H           17.28987882610970       -7.53141550978218       -5.79022835863839
