  26
        -41.46338128
 N         -3.3420812099        0.4595127983       -0.7823725459
 C         -3.2517597283        0.9617056223        0.5783507311
 C         -2.2089163010        2.0676874376        0.7331106316
 C         -0.8533745322        1.6215922863        0.3169597392
 C         -0.1688556107        2.0645115257       -0.7682537058
 C          1.0968275965        1.4450698228       -0.9399429740
 C          1.3926316990        0.5197770281        0.0178623880
 C          2.6040538539       -0.2606342446        0.0855433391
 C          2.9029551783       -1.1815409572        1.0479399348
 C          4.1662436162       -1.8059338444        0.8700568373
 C          4.8323137486       -1.3669749595       -0.2217417713
 S          3.9175449997       -0.1673798116       -1.0626243294
 S          0.0763578145        0.4176059928        1.1595738341
 Cl        -5.6021652491       -1.9548447601       -0.3808493046
 H         -2.4265050664        0.1357712380       -1.0743225023
 H         -3.5730356663        1.2233742775       -1.4081528758
 H         -4.6922230529       -0.9892377579       -0.5483346061
 H         -3.0049611603        0.1229821582        1.2419392138
 H         -4.2422493082        1.3078393217        0.8990870930
 H         -2.1678985431        2.4172880482        1.7709213238
 H         -2.5018158645        2.9373107117        0.1348278146
 H         -0.5579700012        2.8124354700       -1.4415062790
 H          1.7681045425        1.6762485585       -1.7518456903
 H          2.2352071293       -1.4080513390        1.8641780212
 H          4.5527397861       -2.5576227891        1.5421911171
 H          5.7997149316       -1.7067459368       -0.5394635552
