26
 energy: -41.471235118878 gnorm: 0.000767192284 xtb: 6.5.1 (fef0646)
N            1.18449995402687        0.51284914387409        0.07413545803713
C            2.64345766115851        0.45724337740286        0.09267825290550
C            3.12523787751223       -0.07466268547586        1.44848913237550
C            4.60713886507232       -0.21020014988375        1.47225560266035
C            5.35626409587012       -1.33521423794789        1.31210450803682
C            6.74268673254134       -1.09732363418390        1.35421688569626
C            7.05990963418455        0.22116570419711        1.54219480570416
C            8.35290191273606        0.81836936347437        1.64545642156364
C            8.67168769124500        2.13755468001662        1.83482215919345
C           10.05887654881732        2.36715539253521        1.89909247739656
C           10.78630969861128        1.22907909256363        1.75845679533054
S            9.79227316866575       -0.15660574086662        1.54373923232000
S            5.61707539257242        1.18950358920184        1.66747195498449
Cl           0.10731169518684       -2.15556313058670        0.67345875474215
H            0.83846814209121        0.80772246150973       -0.83177427337747
H            0.83925843254662        1.15501523603500        0.77974779463262
H            0.60672141949700       -0.91239761457952        0.38888429526133
H            3.10434551252040        1.43771311933213       -0.09548947854407
H            2.96120287626935       -0.22767341478468       -0.69697114806405
H            2.66764021273807       -1.04838873321462        1.62582470058638
H            2.80008738963411        0.61072912706890        2.23503326863827
H            4.92480547121539       -2.31073162106280        1.17634679724074
H            7.48984003012863       -1.86431900522338        1.25281607643793
H            7.92758038993095        2.90866493096407        1.92465780697832
H           10.49669018692923        3.33850533601837        2.04457601988285
H           11.85135900830470        1.11162941362043        1.76809569938219
