24
 energy: -28.523188354102 gnorm: 0.000476652810 xtb: 6.5.1 (fef0646)
N            1.18827644479593       -0.38689573173715        0.15244954235038
C            2.65767920889192       -0.28004763369526        0.04790789214041
C            3.12882352630669        1.04790828195385        0.62608962444961
C            4.63715776475028        1.22455913443176        0.46459186344841
C            5.11350154936035        2.56664025674239        1.01461008042582
C            6.62494640090801        2.73868721617685        0.87894302254068
C            7.09098122924074        4.09232125374043        1.40171632529855
Cl          -0.14203221135946        1.96528111142150       -1.28680432007012
H            0.84135426037866       -1.25188754613944       -0.26758560369229
H            0.73531907446673        0.41769623770768       -0.35222224177026
H            0.88967485934917       -0.33001022446225        1.12900490552171
H            2.93496698116959       -0.33140372945890       -1.00458747847538
H            3.12279496447276       -1.11010192871180        0.58132653963754
H            2.87626214519865        1.10596231955751        1.68586846115784
H            2.60592870991558        1.85730451116759        0.11260008304037
H            4.89981960700429        1.16130196065341       -0.59320038633939
H            5.15775322404330        0.41928877191321        0.98693140651494
H            4.83719739502997        2.64893537645413        2.06825570734443
H            4.60875857265310        3.37477147788254        0.47941533446291
H            6.90643135936496        2.64118935417909       -0.17200166834909
H            7.12976645245312        1.94407968811075        1.43267681375388
H            6.62031100165821        4.89868660823457        0.84299627881104
H            8.16937312897644        4.19127749762650        1.30360781135372
H            6.82890435097049        4.20729573625157        2.45120000644514
