  21
        -25.83003292
 N         -2.3090137327       -0.2080741443       -1.1857748643
 C         -1.6621895235        0.4193869530        0.0149979369
 C         -2.3053542592       -0.0588586250        1.3119324921
 C         -0.1694178377        0.1937620681        0.0098823965
 C          0.3618437320       -1.0975657306        0.0518912200
 C          1.7375639907       -1.3021748935        0.0437926248
 C          2.6026588526       -0.2161895288       -0.0048977965
 C          2.0892807540        1.0742471640       -0.0449124205
 C          0.7136999211        1.2776661741       -0.0374723284
 H         -3.3091942181        0.0159231085       -1.2276500846
 H         -2.2163120794       -1.2286621484       -1.1527179796
 H         -1.8663333537        0.1211130556       -2.0503500989
 H         -1.8277127549        1.5065550598       -0.0662779746
 H         -2.1919735716       -1.1357973944        1.4253904578
 H         -3.3721826552        0.1626119955        1.3328416574
 H         -1.8448382827        0.4139008613        2.1797189282
 H         -0.3020395811       -1.9428763198        0.0933498348
 H          2.1328180140       -2.3042399986        0.0752275340
 H          3.6689202972       -0.3742247827       -0.0112830081
 H          2.7580366239        1.9184757113       -0.0817528606
 H          0.3219834519        2.2796607093       -0.0686087809
  21
        -25.82988378
 N         -2.2981447773       -0.1359604926       -1.2033164598
 C         -1.6620603119        0.4190450323        0.0379277873
 C         -2.3184708715       -0.1322901514        1.2991589186
 C         -0.1692869271        0.1923243516        0.0276992304
 C          0.3633493004       -1.0971223392        0.1014374035
 C          1.7390307922       -1.3014030182        0.0833790677
 C          2.6027647682       -0.2175743012       -0.0131531448
 C          2.0879848771        1.0704738350       -0.0918537396
 C          0.7124994182        1.2737450421       -0.0719906787
 H         -1.8485402032        0.2461584477       -2.0420640954
 H         -3.2984983403        0.0883068350       -1.2410074085
 H         -2.2012957457       -1.1563141706       -1.2311800774
 H         -1.8251404688        1.5094733561        0.0207402693
 H         -3.3821737219        0.1023003859        1.3297074173
 H         -1.8563524596        0.2779005245        2.1974435930
 H         -2.2222322659       -1.2157786275        1.3447848068
 H         -0.2991175598       -1.9414379737        0.1740819377
 H          2.1354041510       -2.3016165564        0.1446600956
 H          3.6689460774       -0.3754758546       -0.0277939891
 H          2.7555583105        1.9128845119       -0.1691527938
 H          0.3198436376        2.2738761708       -0.1349693632
  21
        -25.82567321
 N         -2.2697648661        0.9854991750       -0.8771616432
 C         -1.6621888597        0.2822209011        0.3066421702
 C         -2.4178102834       -1.0199040084        0.5678259810
 C         -0.1668033013        0.0842527690        0.1475181583
 C          0.4976400929       -1.0011928035        0.7322392540
 C          1.8745803482       -1.1550565098        0.6082848516
 C          2.6206265724       -0.2185797136       -0.0944223467
 C          1.9844882606        0.8746305648       -0.6667612356
 C          0.6074260073        1.0243929405       -0.5409275996
 H         -3.2905936627        1.0406783847       -0.7865750407
 H         -2.0560636693        0.4714001580       -1.7386166505
 H         -1.9232506613        1.9463020439       -0.9776067859
 H         -1.8022545743        0.9419336006        1.1792713189
 H         -3.4945922005       -0.8539756343        0.5830441829
 H         -2.1490829255       -1.4668259342        1.5248522742
 H         -2.2101976480       -1.7465064614       -0.2166496148
 H         -0.0570008886       -1.7294474533        1.2962089327
 H          2.3646428339       -2.0008721822        1.0621923788
 H          3.6878401875       -0.3364862082       -0.1899792903
 H          2.5592045232        1.6093992200       -1.2065241016
 H          0.1360991169        1.8859448850       -0.9764031996
