  21
  -25.830032920000001        5.3829229385003868E-002 !mtd10
 N         -2.3090137327       -0.2080741443       -1.1857748643
 C         -1.6621895235        0.4193869530        0.0149979369
 C         -2.3053542592       -0.0588586250        1.3119324921
 C         -0.1694178377        0.1937620681        0.0098823965
 C          0.3618437320       -1.0975657306        0.0518912200
 C          1.7375639907       -1.3021748935        0.0437926248
 C          2.6026588526       -0.2161895288       -0.0048977965
 C          2.0892807540        1.0742471640       -0.0449124205
 C          0.7136999211        1.2776661741       -0.0374723284
 H         -3.3091942181        0.0159231085       -1.2276500846
 H         -2.2163120794       -1.2286621484       -1.1527179796
 H         -1.8663333537        0.1211130556       -2.0503500989
 H         -1.8277127549        1.5065550598       -0.0662779746
 H         -2.1919735716       -1.1357973944        1.4253904578
 H         -3.3721826552        0.1626119955        1.3328416574
 H         -1.8448382827        0.4139008613        2.1797189282
 H         -0.3020395811       -1.9428763198        0.0933498348
 H          2.1328180140       -2.3042399986        0.0752275340
 H          3.6689202972       -0.3742247827       -0.0112830081
 H          2.7580366239        1.9184757113       -0.0817528606
 H          0.3219834519        2.2796607093       -0.0686087809
  21
  -25.830032700000000        5.3816699244733340E-002 !mtd5
 N         -2.3092822792       -0.2095118767       -1.1853738642
 C         -1.6621920404        0.4193666305        0.0145251799
 C         -2.3050631630       -0.0573245080        1.3121691755
 C         -0.1694190597        0.1937607127        0.0094812608
 C          0.3618439425       -1.0975855962        0.0508436012
 C          1.7375681613       -1.3021785451        0.0429903716
 C          2.6026665408       -0.2161513920       -0.0046947042
 C          2.0892876984        1.0743091411       -0.0439329726
 C          0.7137024522        1.2777097560       -0.0367862901
 H         -1.8667669984        0.1186216880       -2.0504723426
 H         -3.3094654975        0.0144940755       -1.2273069636
 H         -2.2166886656       -1.2300382816       -1.1511119735
 H         -1.8277453765        1.5064313523       -0.0680581761
 H         -2.1913409551       -1.1340795906        1.4270281394
 H         -3.3719470857        0.1638911287        1.3329197971
 H         -1.8445662693        0.4167065613        2.1792748769
 H         -0.3020421710       -1.9429238287        0.0916492244
 H          2.1328215044       -2.3042623675        0.0738326910
 H          3.6689312179       -0.3741727078       -0.0108862430
 H          2.7580469890        1.9185714943       -0.0799231293
 H          0.3219860228        2.2797247062       -0.0672603316
  21
  -25.830032670000001        5.3814990815306420E-002 !mtd11
 N         -2.3084925356       -0.2056195515       -1.1864683355
 C         -1.6621853299        0.4194238257        0.0158237917
 C         -2.3059132485       -0.0614806473        1.3115093950
 C         -0.1694168695        0.1937671922        0.0106401602
 C          0.3618400735       -1.0975285755        0.0537234877
 C          1.7375529507       -1.3021685698        0.0451489227
 C          2.6026410136       -0.2162570015       -0.0052885929
 C          2.0892644647        1.0741381934       -0.0466151707
 C          0.7136922943        1.2775920390       -0.0386233092
 H         -2.2159887093       -1.2262740063       -1.1552334730
 H         -1.8651614066        0.1250536350       -2.0501684731
 H         -3.3085628326        0.0187220669       -1.2285361362
 H         -1.8276501878        1.5067647219       -0.0632324857
 H         -1.8453531678        0.4090600487        2.1804975892
 H         -2.1931581140       -1.1387822726        1.4225508186
 H         -3.3725736810        0.1604545290        1.3326637415
 H         -0.3020424598       -1.9427904456        0.0962405329
 H          2.1328070190       -2.3042025762        0.0775493458
 H          3.6688967070       -0.3743164595       -0.0120553304
 H          2.7580138582        1.9183046995       -0.0849677716
 H          0.3219744667        2.2795484215       -0.0709465008
  21
  -25.830032580000001        5.3809865852224519E-002 !mtd1
 N         -2.3090510908       -0.2082580075       -1.1857267345
 C         -1.6621917883        0.4193796680        0.0149357863
 C         -2.3053168811       -0.0586593387        1.3119647994
 C         -0.1694189799        0.1937611068        0.0098289212
 C          0.3618452204       -1.0975692158        0.0517581785
 C          1.7375657299       -1.3021760717        0.0436896368
 C          2.6026603021       -0.2161855572       -0.0048738915
 C          2.0892808484        1.0742537904       -0.0447864925
 C          0.7136992282        1.2776706722       -0.0373814235
 H         -1.8665267266        0.1209647890       -2.0503992675
 H         -3.3092826215        0.0155654719       -1.2274965709
 H         -2.2161784586       -1.2287952428       -1.1526283498
 H         -1.8277282819        1.5065325798       -0.0665119143
 H         -3.3721575721        0.1625371380        1.3327357424
 H         -1.8449557543        0.4144990526        2.1797005869
 H         -2.1916618217       -1.1355151101        1.4257406911
 H         -0.3020342942       -1.9428857327        0.0931490144
 H          2.1328205721       -2.3042433508        0.0750498746
 H          3.6689220405       -0.3742201342       -0.0112426936
 H          2.7580373219        1.9184862422       -0.0815214029
 H          0.3219832160        2.2796683638       -0.0684201534
  21
  -25.830031120000001        5.3726795708157936E-002 !gc
 N         -2.3103772814       -0.2148842369       -1.1838308476
 C         -1.6621979151        0.4192859000        0.0127328522
 C         -2.3038973455       -0.0515766194        1.3130524025
 C         -0.1694197932        0.1937503139        0.0078825137
 C          0.3618529240       -1.0976593529        0.0468420131
 C          1.7375933883       -1.3021849838        0.0400120865
 C          2.6027001326       -0.2160030010       -0.0038649616
 C          2.0893131924        1.0745391505       -0.0402363435
 C          0.7137106638        1.2778654469       -0.0342501519
 H         -2.2188315549       -1.2353592428       -1.1446897052
 H         -1.8680825628        0.1087255575       -2.0507832503
 H         -3.3103601854        0.0097609096       -1.2263172674
 H         -1.8278644658        1.5059490563       -0.0747563042
 H         -2.1881724401       -1.1275074154        1.4335331248
 H         -3.3711470348        0.1679327760        1.3329131200
 H         -1.8439840775        0.4278067363        2.1775345539
 H         -0.3020445294       -1.9430957152        0.0852041257
 H          2.1328499726       -2.3043300214        0.0687420955
 H          3.6689783964       -0.3739633570       -0.0091983183
 H          2.7580822009        1.9189283982       -0.0729240950
 H          0.3219923850        2.2799559748       -0.0621147850
  21
  -25.830030600000001        5.3697240063150201E-002 !gc
 N         -2.3069003620       -0.1966586166       -1.1888782275
 C         -1.6621733282        0.4195168779        0.0187570753
 C         -2.3076201778       -0.0710155003        1.3100397285
 C         -0.1694084920        0.1937716488        0.0130262745
 C          0.3618462201       -1.0973950074        0.0601263262
 C          1.7375341623       -1.3021315169        0.0501571297
 C          2.6025898688       -0.2164961803       -0.0064226211
 C          2.0892061019        1.0737288011       -0.0526442702
 C          0.7136610952        1.2772938432       -0.0429745201
 H         -2.2140007749       -1.2174705036       -1.1650237594
 H         -1.8623319714        0.1403965672       -2.0494207833
 H         -3.3069258278        0.0279391713       -1.2307098086
 H         -1.8274388525        1.5074456004       -0.0521910241
 H         -3.3736890608        0.1536852045        1.3328989447
 H         -1.8459485457        0.3905998955        2.1832612373
 H         -2.1981461532       -1.1495068865        1.4116963605
 H         -0.3020142637       -1.9424707152        0.1066986155
 H          2.1328157348       -2.3040253266        0.0863229494
 H          3.6688267721       -0.3746303122       -0.0143075417
 H          2.7579172925        1.9176665715       -0.0963346206
 H          0.3219366482        2.2790964498       -0.0796844193
  21
  -25.830030449999999        5.3688717418099413E-002 !gc
 N         -2.3104651831       -0.2160899371       -1.1835286276
 C         -1.6622009569        0.4192712026        0.0123674418
 C         -2.3038025815       -0.0502822020        1.3132066760
 C         -0.1694210309        0.1937536353        0.0077168501
 C          0.3618584309       -1.0976702927        0.0460933720
 C          1.7376003365       -1.3021882297        0.0393016464
 C          2.6027049341       -0.2159743552       -0.0038282769
 C          2.0893124622        1.0745855615       -0.0394770277
 C          0.7137076329        1.2779004282       -0.0336065826
 H         -1.8682755788        0.1066200619       -2.0508782356
 H         -3.3104850577        0.0084942479       -1.2261514848
 H         -2.2189728817       -1.2364963680       -1.1433175684
 H         -1.8278956054        1.5058360178       -0.0762461462
 H         -1.8441348752        0.4303266679        2.1771672407
 H         -2.1876323966       -1.1260658143        1.4349898871
 H         -3.3710722803        0.1688266592        1.3327294677
 H         -0.3020354284       -1.9431315518        0.0839100776
 H          2.1328537494       -2.3043525956        0.0674002105
 H          3.6689839398       -0.3739267378       -0.0092191958
 H          2.7580795569        1.9189966449       -0.0716252449
 H          0.3219854095        2.2799998569       -0.0610928450
  21
  -25.830028080000002        5.3554239015955400E-002 !gc
 N         -2.3055183269       -0.1896652560       -1.1907506179
 C         -1.6621980071        0.4196128354        0.0210876082
 C         -2.3089539073       -0.0786285355        1.3088211538
 C         -0.1694072726        0.1939483101        0.0149981210
 C          0.3617991950       -1.0971744472        0.0652434973
 C          1.7374427935       -1.3020916954        0.0540849227
 C          2.6025216311       -0.2167394877       -0.0073555059
 C          2.0891749542        1.0733590414       -0.0574262380
 C          0.7136594878        1.2771151564       -0.0463932520
 H         -3.3057289329        0.0343532549       -1.2320937742
 H         -2.2115438450       -1.2105043176       -1.1729607905
 H         -1.8604436841        0.1528909701       -2.0487865618
 H         -1.8275590733        1.5079110860       -0.0435429507
 H         -1.8482555398        0.3777038878        2.1852693771
 H         -2.1997796708       -1.1577888547        1.4041504575
 H         -3.3750320427        0.1458824284        1.3318734018
 H         -0.3020955497       -1.9420494898        0.1149290824
 H          2.1326557271       -2.3039066740        0.0930763327
 H          3.6687321876       -0.3750022605       -0.0162373996
 H          2.7578929441        1.9170589703       -0.1054075879
 H          0.3219786190        2.2787975591       -0.0867361688
  21
  -25.830019950000001        5.3095481457248545E-002 !mtd3
 N         -2.2410390235        0.3317282554        1.2753781733
 C         -1.6991892043       -0.2296573689       -0.0069372563
 C         -2.3147888185        0.4540145263       -1.2229429553
 C         -0.1906430506       -0.1717284155       -0.0283155120
 C          0.5657370089       -1.3474968244       -0.0697942450
 C          1.9555189281       -1.2989962257       -0.0832936375
 C          2.6097451314       -0.0737030461       -0.0552190595
 C          1.8714346205        1.1024792354       -0.0129459661
 C          0.4816621987        1.0528177653        0.0013797616
 H         -2.0321665793        1.3330012761        1.3465377830
 H         -1.8160174538       -0.1368017637        2.0823677848
 H         -3.2587733625        0.2161611455        1.3318582443
 H         -1.9850391028       -1.2943345897       -0.0344547703
 H         -1.9285649894        0.0332032031       -2.1516441490
 H         -2.0873996265        1.5188402391       -1.2247095847
 H         -3.3995740861        0.3511966946       -1.2310794973
 H          0.0646647774       -2.2998204628       -0.0905349304
 H          2.5256869859       -2.2129253763       -0.1150116386
 H          3.6869104271       -0.0355745167       -0.0656306210
 H          2.3762961342        2.0543038280        0.0085277890
 H         -0.0835513749        1.9674036252        0.0338874304
  21
  -25.830019660000001        5.3079190201397917E-002 !gc
 N         -2.3042995470       -0.1829652144       -1.1925647940
 C         -1.6621629855        0.4195608370        0.0232587316
 C         -2.3104580813       -0.0853855956        1.3076378672
 C         -0.1693971197        0.1937272980        0.0169398122
 C          0.3619425362       -1.0971756149        0.0700997086
 C          1.7375922997       -1.3020416268        0.0576965928
 C          2.6025348935       -0.2168574071       -0.0084081082
 C          2.0890585869        1.0730517827       -0.0619213470
 C          0.7135552051        1.2767598759       -0.0494097980
 H         -3.3045637910        0.0409147359       -1.2334970789
 H         -2.2097261293       -1.2038293505       -1.1805767739
 H         -1.8586175266        0.1647022319       -2.0482142433
 H         -1.8271660049        1.5082616147       -0.0353982257
 H         -3.3760461988        0.1414089414        1.3318100688
 H         -1.8490159866        0.3644762112        2.1871057275
 H         -2.2038691449       -1.1652928706        1.3963530514
 H         -0.3018157779       -1.9419917605        0.1226155545
 H          2.1329145876       -2.3037121009        0.0992934482
 H          3.6687427316       -0.3751089581       -0.0182864138
 H          2.7576603237        1.9166187136       -0.1137411719
 H          0.3217550532        2.2782834606       -0.0924813435
  21
  -25.830017510000001        5.2958566001301999E-002 !gc
 N         -2.2410709712        0.3245048315        1.2766261630
 C         -1.6992226625       -0.2294795275       -0.0088954531
 C         -2.3146924044        0.4613086074       -1.2209457232
 C         -0.1906642114       -0.1715458550       -0.0296652648
 C          0.5656733124       -1.3472055847       -0.0747823357
 C          1.9554664519       -1.2987458764       -0.0873443100
 C          2.6097502325       -0.0735976826       -0.0546451000
 C          1.8714848448        1.1024716822       -0.0086497630
 C          0.4817026288        1.0528443067        0.0047895695
 H         -2.0318991700        1.3252813794        1.3536434379
 H         -1.8162154687       -0.1488420409        2.0808881005
 H         -3.2588403998        0.2088748753        1.3323507416
 H         -1.9851723263       -1.2939527110       -0.0426868982
 H         -3.3994697761        0.3582465174       -1.2299794743
 H         -1.9280988070        0.0461258084       -2.1520749462
 H         -2.0876423508        1.5261300716       -1.2162986944
 H          0.0645623781       -2.2994252863       -0.0989810815
 H          2.5255959690       -2.2125977660       -0.1219073233
 H          3.6869235577       -0.0354898750       -0.0643023218
 H          2.3763839491        2.0541881847        0.0163907333
 H         -0.0834665908        1.9673441491        0.0403904174
  21
  -25.830011700000000        5.2633969654378859E-002 !gc
 N         -2.2385099468        0.5145050453        1.2302040257
 C         -1.6982107024       -0.2301790618        0.0438416414
 C         -2.3189149050        0.2631391188       -1.2583492908
 C         -0.1900756764       -0.1734963794        0.0046994599
 C          0.5672510508       -1.3482297569        0.0575545402
 C          1.9566592000       -1.3007948900        0.0213525538
 C          2.6094852434       -0.0777573374       -0.0687521293
 C          1.8701117514        1.0972562505       -0.1233519839
 C          0.4806807571        1.0487001625       -0.0875862841
 H         -3.2546278429        0.3984085119        1.3101311945
 H         -2.0420471716        1.5174200992        1.1470958565
 H         -1.8045984169        0.1785672372        2.0965410957
 H         -1.9810070712       -1.2876294869        0.1775436012
 H         -1.9399368001       -0.2960573924       -2.1141363327
 H         -2.0862560975        1.3140189491       -1.4232816595
 H         -3.4041096477        0.1655027156       -1.2447976818
 H          0.0671748430       -2.2987673440        0.1272813459
 H          2.5276403400       -2.2137783358        0.0630496371
 H          3.6863601024       -0.0405643966       -0.0967934001
 H          2.3739214198        2.0472353737       -0.1939754151
 H         -0.0855141621        1.9619779204       -0.1348813859
  21
  -25.830009080000000        5.2488245628140806E-002 !mtd8
 N         -2.2380965672        0.5491623184        1.2184193481
 C         -1.6980499845       -0.2294612249        0.0537368811
 C         -2.3196626326        0.2259418039       -1.2616902540
 C         -0.1899597534       -0.1734702703        0.0110021925
 C          0.5676592442       -1.3470624572        0.0817959727
 C          1.9569839216       -1.3000874282        0.0414693548
 C          2.6094910510       -0.0786877183       -0.0708013714
 C          1.8697740242        1.0950847015       -0.1444537757
 C          0.4804274543        1.0468684524       -0.1051857607
 H         -1.8034608276        0.2393054342        2.0941385662
 H         -3.2540239257        0.4343916543        1.3022811324
 H         -2.0433130036        1.5495696405        1.1059589010
 H         -1.9806084737       -1.2826714888        0.2179874273
 H         -1.9437597050       -0.3599296849       -2.1008596567
 H         -2.0840308098        1.2705723192       -1.4587597210
 H         -3.4051183645        0.1318738267       -1.2431019173
 H          0.0678402798       -2.2963535208        0.1685771988
 H          2.5282040934       -2.2121993143        0.0971177966
 H          3.6863602644       -0.0418774029       -0.1014873122
 H          2.3731156257        2.0439038554       -0.2323347895
 H         -0.0860965181        1.9589811699       -0.1681779699
  21
  -25.830007970000000        5.2426629324648540E-002 !md4
 N         -2.2385510166        0.5163692417        1.2295973381
 C         -1.6982086851       -0.2301631622        0.0443859030
 C         -2.3188949867        0.2611736354       -1.2585665078
 C         -0.1900693123       -0.1735064176        0.0050335436
 C          0.5672836392       -1.3481851846        0.0588170174
 C          1.9566875484       -1.3007628332        0.0224320832
 C          2.6094885947       -0.0778003755       -0.0688138176
 C          1.8700953438        1.0971505215       -0.1244594045
 C          0.4806698598        1.0486056805       -0.0885521293
 H         -2.0427948877        1.5192776367        1.1447615305
 H         -1.8042010846        0.1822284960        2.0964450054
 H         -3.2545447375        0.3997637519        1.3099948873
 H         -1.9810289546       -1.2874142061        0.1797536032
 H         -2.0862243683        1.3117483627       -1.4250771071
 H         -3.4041520182        0.1635421951       -1.2448948534
 H         -1.9399012571       -0.2992563931       -2.1135122708
 H          0.0672355810       -2.2986923101        0.1291675004
 H          2.5276884138       -2.2137023078        0.0648037797
 H          3.6863596430       -0.0406386288       -0.0969595177
 H          2.3738879125        2.0470683120       -0.1960168262
 H         -0.0855319716        1.9618404861       -0.1366037772
  21
  -25.829996779999998        5.1809496116723315E-002 !mtd10
 N         -2.2400587953        0.4970535098        1.2352818118
 C         -1.6982708882       -0.2304169161        0.0388686407
 C         -2.3175526120        0.2815911016       -1.2567838752
 C         -0.1900557252       -0.1733637295        0.0022834365
 C          0.5671517595       -1.3485741776        0.0457842298
 C          1.9565960823       -1.3010060548        0.0114056297
 C          2.6096243229       -0.0773197448       -0.0675782411
 C          1.8704075779        1.0981960010       -0.1127565000
 C          0.4809407119        1.0495220549       -0.0786334957
 H         -1.8072248379        0.1489635628        2.0973992488
 H         -3.2562344389        0.3793583892        1.3122264266
 H         -2.0439121331        1.5011384353        1.1669323573
 H         -1.9813026082       -1.2897100916        0.1565696083
 H         -3.4027827930        0.1838435786       -1.2457335819
 H         -1.9377138046       -0.2653179544       -2.1201536767
 H         -2.0847119669        1.3345983173       -1.4065689330
 H          0.0669751377       -2.2996835085        0.1064251357
 H          2.5274351952       -2.2143816360        0.0458336550
 H          3.6865187064       -0.0400906565       -0.0946131740
 H          2.3744234531        2.0486301726       -0.1753085993
 H         -0.0850461316        1.9632846639       -0.1185399070
  21
  -25.829996410000000        5.1789215007043289E-002 !gc
 N         -2.2395070517        0.4923555377        1.2370807288
 C         -1.6983095045       -0.2304851470        0.0376099742
 C         -2.3180305146        0.2867310071       -1.2557701166
 C         -0.1900974905       -0.1734555293        0.0008709728
 C          0.5671058345       -1.3487522311        0.0419692447
 C          1.9565689405       -1.3010446680        0.0085586006
 C          2.6096231176       -0.0771558223       -0.0670160672
 C          1.8704142700        1.0984516887       -0.1097870224
 C          0.4809295388        1.0496380440       -0.0766476631
 H         -3.2557314899        0.3749864871        1.3137549795
 H         -2.0427550792        1.4966237511        1.1728195165
 H         -1.8067469294        0.1404126559        2.0976395193
 H         -1.9814627181       -1.2901926867        0.1512227418
 H         -2.0849922069        1.3402732937       -1.4015690825
 H         -3.4033295124        0.1892489112       -1.2445343232
 H         -1.9387734705       -0.2568930038       -2.1213817357
 H          0.0668896469       -2.2999913820        0.1001895128
 H          2.5274253888       -2.2144782829        0.0411235547
 H          3.6865409582       -0.0398018665       -0.0929533582
 H          2.3743819173        2.0491108056       -0.1692385273
 H         -0.0850987779        1.9634767761       -0.1142137719
  21
  -25.829995810000000        5.1756343595361201E-002 !mtd14
 N         -2.2396592462        0.4852061691        1.2392387411
 C         -1.6983492498       -0.2305613789        0.0355916098
 C         -2.3178090290        0.2943520759       -1.2548181481
 C         -0.1901187299       -0.1734512794       -0.0004019984
 C          0.5670441832       -1.3488980321        0.0369794356
 C          1.9565233459       -1.3011020968        0.0044121620
 C          2.6096287676       -0.0769644418       -0.0665244602
 C          1.8704695006        1.0988101909       -0.1054007875
 C          0.4809681158        1.0499078699       -0.0731037885
 H         -1.8077920316        0.1273065166        2.0978191914
 H         -3.2560569659        0.3683334856        1.3144746714
 H         -2.0417844843        1.4896265349        1.1815854437
 H         -1.9816032712       -1.2909083202        0.1427740811
 H         -2.0856451367        1.3490039375       -1.3937978946
 H         -3.4030306964        0.1958594356       -1.2448375564
 H         -1.9375924608       -0.2434432391       -2.1236434173
 H          0.0667799744       -2.3003220534        0.0916553171
 H          2.5273521408       -2.2146560833        0.0339509782
 H          3.6865580539       -0.0395325536       -0.0918721897
 H          2.3744843176        2.0496662672       -0.1611890096
 H         -0.0850265321        1.9638878183       -0.1076574326
  21
  -25.829991499999998        5.1520829716782623E-002 !md1
 N         -2.2399494851        0.4663270536        1.2448319049
 C         -1.6984298519       -0.2306738442        0.0303194127
 C         -2.3175038081        0.3142950214       -1.2519534464
 C         -0.1901603055       -0.1733667211       -0.0039325077
 C          0.5668716718       -1.3491656653        0.0236068064
 C          1.9564007464       -1.3011631673       -0.0064862238
 C          2.6097165727       -0.0764862548       -0.0650591510
 C          1.8706677596        1.0996448036       -0.0939228859
 C          0.4811202502        1.0505802718       -0.0639130552
 H         -3.2564461725        0.3488479163        1.3177202454
 H         -2.0413859142        1.4714338580        1.2028460059
 H         -1.8087408327        0.0948840254        2.0979447310
 H         -1.9819251483       -1.2925094101        0.1206731678
 H         -3.4027674446        0.2166602561       -1.2432639493
 H         -1.9379018139       -0.2107418857       -2.1288969265
 H         -2.0844704127        1.3706894598       -1.3751059535
 H          0.0665574553       -2.3010593247        0.0688266345
 H          2.5270945965       -2.2150139330        0.0155707621
 H          3.6866855140       -0.0389607748       -0.0884773862
 H          2.3748115021        2.0509499961       -0.1400800366
 H         -0.0847214515        1.9649381027       -0.0899933102
  21
  -25.829883779999999        4.5970387449474265E-002 !gc
 N         -2.2981447773       -0.1359604926       -1.2033164598
 C         -1.6620603119        0.4190450323        0.0379277873
 C         -2.3184708715       -0.1322901514        1.2991589186
 C         -0.1692869271        0.1923243516        0.0276992304
 C          0.3633493004       -1.0971223392        0.1014374035
 C          1.7390307922       -1.3014030182        0.0833790677
 C          2.6027647682       -0.2175743012       -0.0131531448
 C          2.0879848771        1.0704738350       -0.0918537396
 C          0.7124994182        1.2737450421       -0.0719906787
 H         -1.8485402032        0.2461584477       -2.0420640954
 H         -3.2984983403        0.0883068350       -1.2410074085
 H         -2.2012957457       -1.1563141706       -1.2311800774
 H         -1.8251404688        1.5094733561        0.0207402693
 H         -3.3821737219        0.1023003859        1.3297074173
 H         -1.8563524596        0.2779005245        2.1974435930
 H         -2.2222322659       -1.2157786275        1.3447848068
 H         -0.2991175598       -1.9414379737        0.1740819377
 H          2.1354041510       -2.3016165564        0.1446600956
 H          3.6689460774       -0.3754758546       -0.0277939891
 H          2.7555583105        1.9128845119       -0.1691527938
 H          0.3198436376        2.2738761708       -0.1349693632
  21
  -25.825673210000001        5.3386834486758442E-004 !gc
 N         -2.2697648661        0.9854991750       -0.8771616432
 C         -1.6621888597        0.2822209011        0.3066421702
 C         -2.4178102834       -1.0199040084        0.5678259810
 C         -0.1668033013        0.0842527690        0.1475181583
 C          0.4976400929       -1.0011928035        0.7322392540
 C          1.8745803482       -1.1550565098        0.6082848516
 C          2.6206265724       -0.2185797136       -0.0944223467
 C          1.9844882606        0.8746305648       -0.6667612356
 C          0.6074260073        1.0243929405       -0.5409275996
 H         -3.2905936627        1.0406783847       -0.7865750407
 H         -2.0560636693        0.4714001580       -1.7386166505
 H         -1.9232506613        1.9463020439       -0.9776067859
 H         -1.8022545743        0.9419336006        1.1792713189
 H         -3.4945922005       -0.8539756343        0.5830441829
 H         -2.1490829255       -1.4668259342        1.5248522742
 H         -2.2101976480       -1.7465064614       -0.2166496148
 H         -0.0570008886       -1.7294474533        1.2962089327
 H          2.3646428339       -2.0008721822        1.0621923788
 H          3.6878401875       -0.3364862082       -0.1899792903
 H          2.5592045232        1.6093992200       -1.2065241016
 H          0.1360991169        1.8859448850       -0.9764031996
