  21
        -25.72554707
 N         -2.3072736601       -0.2047690236       -1.1856574906
 C         -1.6639454911        0.4178779772        0.0157088655
 C         -2.3162635076       -0.0614065241        1.3084479893
 C         -0.1697883330        0.1928907904        0.0125759208
 C          0.7142930365        1.2782740721       -0.0355879225
 C          2.0915286169        1.0758113889       -0.0432260416
 C          2.6065525921       -0.2148092889       -0.0033093735
 C          1.7419723835       -1.3024209676        0.0432413846
 C          0.3644569884       -1.0996792437        0.0502409937
 H         -1.8696532993        0.1287878689       -2.0564904911
 H         -3.3125592252        0.0156451213       -1.2331764372
 H         -2.2154128464       -1.2296298036       -1.1640225280
 H         -1.8287985234        1.5062342877       -0.0640745433
 H         -2.1976578989       -1.1382845734        1.4270472978
 H         -3.3863541949        0.1519075946        1.3177121746
 H         -1.8704790115        0.4174941630        2.1819072609
 H          0.3223856941        2.2815859933       -0.0677322111
 H          2.7609619277        1.9216147337       -0.0803997076
 H          3.6745897076       -0.3719333217       -0.0086663832
 H          2.1400568011       -2.3050922748        0.0742167173
 H         -0.2986768327       -1.9473069587        0.0856423090
