  21
        -25.83003292
 N         -2.3090137327       -0.2080741443       -1.1857748643
 C         -1.6621895235        0.4193869530        0.0149979369
 C         -2.3053542592       -0.0588586250        1.3119324921
 C         -0.1694178377        0.1937620681        0.0098823965
 C          0.3618437320       -1.0975657306        0.0518912200
 C          1.7375639907       -1.3021748935        0.0437926248
 C          2.6026588526       -0.2161895288       -0.0048977965
 C          2.0892807540        1.0742471640       -0.0449124205
 C          0.7136999211        1.2776661741       -0.0374723284
 H         -3.3091942181        0.0159231085       -1.2276500846
 H         -2.2163120794       -1.2286621484       -1.1527179796
 H         -1.8663333537        0.1211130556       -2.0503500989
 H         -1.8277127549        1.5065550598       -0.0662779746
 H         -2.1919735716       -1.1357973944        1.4253904578
 H         -3.3721826552        0.1626119955        1.3328416574
 H         -1.8448382827        0.4139008613        2.1797189282
 H         -0.3020395811       -1.9428763198        0.0933498348
 H          2.1328180140       -2.3042399986        0.0752275340
 H          3.6689202972       -0.3742247827       -0.0112830081
 H          2.7580366239        1.9184757113       -0.0817528606
 H          0.3219834519        2.2796607093       -0.0686087809
