  21
        -25.72554707
 N         -2.3072736601       -0.2047690236       -1.1856574906
 C         -1.6639454911        0.4178779772        0.0157088655
 C         -2.3162635076       -0.0614065241        1.3084479893
 C         -0.1697883330        0.1928907904        0.0125759208
 C          0.7142930365        1.2782740721       -0.0355879225
 C          2.0915286169        1.0758113889       -0.0432260416
 C          2.6065525921       -0.2148092889       -0.0033093735
 C          1.7419723835       -1.3024209676        0.0432413846
 C          0.3644569884       -1.0996792437        0.0502409937
 H         -1.8696532993        0.1287878689       -2.0564904911
 H         -3.3125592252        0.0156451213       -1.2331764372
 H         -2.2154128464       -1.2296298036       -1.1640225280
 H         -1.8287985234        1.5062342877       -0.0640745433
 H         -2.1976578989       -1.1382845734        1.4270472978
 H         -3.3863541949        0.1519075946        1.3177121746
 H         -1.8704790115        0.4174941630        2.1819072609
 H          0.3223856941        2.2815859933       -0.0677322111
 H          2.7609619277        1.9216147337       -0.0803997076
 H          3.6745897076       -0.3719333217       -0.0086663832
 H          2.1400568011       -2.3050922748        0.0742167173
 H         -0.2986768327       -1.9473069587        0.0856423090
  21
        -25.72125177
 N         -2.3769451469       -1.0789233137       -0.2495880051
 C         -1.6734193222        0.2474860519       -0.2797567740
 C         -2.2991142854        1.1778748496        0.7585650281
 C         -0.1703647941        0.0979061767       -0.1314569634
 C          0.6126588138        1.0775501595        0.4962675929
 C          1.9955256623        0.9446286293        0.5905671925
 C          2.6288839523       -0.1672250986        0.0496053778
 C          1.8746433064       -1.1418689232       -0.5913691926
 C          0.4919528806       -1.0059928654       -0.6841631107
 H         -2.1185419939       -1.6821832100       -1.0430201805
 H         -3.3992469330       -0.9586356970       -0.2867017909
 H         -2.1564835517       -1.5829126724        0.6206594574
 H         -1.8495592292        0.6824611188       -1.2788539525
 H         -1.9527549271        2.2068238275        0.6531912509
 H         -2.0626546208        0.8406912292        1.7681841532
 H         -3.3862636273        1.1943701311        0.6676485956
 H          0.1460339089        1.9559063243        0.9078410132
 H          2.5788017208        1.7094948507        1.0802907839
 H          3.7012300768       -0.2698170652        0.1209244496
 H          2.3628703762       -2.0027819582       -1.0220718156
 H         -0.0726835098       -1.7617237817       -1.2013833114
  21
        -25.72113094
 N         -2.3793414152       -1.0698084957       -0.2850858869
 C         -1.6728408245        0.2553961572       -0.2758016639
 C         -2.2980735726        1.1566103098        0.7882856466
 C         -0.1701297863        0.1007586330       -0.1286695992
 C          0.6161884665        1.0846873618        0.4880160851
 C          1.9988892885        0.9495475388        0.5816916942
 C          2.6290447970       -0.1684540354        0.0497610611
 C          1.8716707606       -1.1473165447       -0.5810067450
 C          0.4890309998       -1.0096888439       -0.6720601151
 H         -2.1604825250       -1.6000558827        0.5697344916
 H         -2.1226779948       -1.6491709928       -1.0966562917
 H         -3.4014513638       -0.9458262269       -0.3187006640
 H         -1.8468139494        0.7191027580       -1.2622899211
 H         -3.3852350879        1.1751826267        0.6988782657
 H         -1.9524448160        2.1883352144        0.7112570226
 H         -2.0602397806        0.7920200308        1.7879842644
 H          0.1520732270        1.9684753492        0.8908089600
 H          2.5845165045        1.7174204021        1.0637934145
 H          3.7012809658       -0.2726978649        0.1203269209
 H          2.3574255946       -2.0128900814       -1.0050851115
 H         -0.0778187478       -1.7697824321       -1.1800297760
