23
 energy: -32.815050439928 gnorm: 0.000374292105 xtb: 6.5.1 (fef0646)
N            1.44162052084029       -0.64266414494954       -0.27342781482534
C            2.75307558400639       -0.10954665195686        0.11810484010626
C            3.14765216146603        1.00113873903115       -0.81708479375396
C            2.63112198269566        2.28080389047065       -0.65071205957002
C            2.96751471139637        3.29475249539200       -1.52356096293417
C            3.83243246250634        3.06296967336757       -2.59438661957713
C            4.22500944484624        4.10088729921168       -3.54007202137572
C            3.96131862833366        5.39848733325237       -3.44624349271396
C            4.33768688789270        1.77288595288774       -2.75960000557912
C            4.00138515127158        0.75856741489891       -1.88483147032555
Cl          -0.75104630800845        1.26459452459103        0.11645710692370
H            1.18529586473864       -1.43645548640492        0.30382123565848
H            1.45186116546953       -0.93263715864062       -1.24591244383730
H            0.30193066563217        0.40842090456327       -0.07975677548063
H            3.52710677422009       -0.88977897239769        0.11076772395459
H            2.65559714690501        0.27298856216614        1.13705142625789
H            1.95448509071722        2.47594544422778        0.16643869233183
H            2.54612647573501        4.27635776806117       -1.37573661488605
H            4.79898822621926        3.74313518703717       -4.38663354650187
H            3.40883974055381        5.82303274873080       -2.62621449763718
H            4.29834132441914        6.09369438924303       -4.19595491157086
H            5.00637946620401        1.56660758300488       -3.58353663136062
H            4.41155683194098       -0.23151749579861       -2.03154636328625
