  22
        -34.71148997
 N         -2.3388562744        1.0176474925        1.4548579769
 C         -2.2225866419        2.0834139539        0.4246864175
 C         -1.5562632320        1.5732816147       -0.8503020367
 C         -0.2124147053        0.9568663398       -0.5942129437
 C         -0.0962897697       -0.4110491587       -0.3732158922
 C          1.1305010404       -0.9780722213       -0.0970636085
 C          2.2615824671       -0.1811665730       -0.0308680000
 Cl         3.7982269386       -0.8875179815        0.3203671511
 C          2.1568166705        1.1843418294       -0.2402428911
 C          0.9278468147        1.7480502823       -0.5162299597
 Cl        -3.3575503226       -1.8909888246       -0.1821194634
 H         -1.4066829839        0.7304043713        1.7921575314
 H         -2.7855685479        0.1718196453        1.0543110529
 H         -2.8916588919        1.3169478707        2.2753364665
 H         -1.6467957217        2.9214668635        0.8359415417
 H         -3.2169076615        2.4884957479        0.1979898800
 H         -1.4507134459        2.3827073573       -1.5826748487
 H         -2.2019766877        0.8283676414       -1.3293053970
 H         -0.9817409402       -1.0248262059       -0.4065865850
 H          1.2255806142       -2.0377991078        0.0740279082
 H          3.0447212643        1.7924727467       -0.1813358674
 H          0.8421103655        2.8109268294       -0.6707442961
