  22
        -34.80054835
 N         -4.3032693346       -1.3190882965        1.0457992580
 C         -4.5565463120        0.0985976911        0.6629978064
 C         -3.8328388667        0.4878663710       -0.6241826740
 C         -2.3412073781        0.3836921662       -0.5035168239
 C         -1.6209839616        1.3615729639        0.1711569492
 C         -0.2541220186        1.2553801881        0.3158877802
 C          0.4154022969        0.1632434646       -0.2101830276
 Cl         2.1356316152        0.0280010384       -0.0315961742
 C         -0.2928964017       -0.8205526881       -0.8795518956
 C         -1.6597156844       -0.7104941609       -1.0223692126
 Cl         5.3410266884       -0.2143059892        0.2787166402
 H         -3.2938131955       -1.4845120315        1.1735496241
 H         -4.6296745314       -1.9594920694        0.3109420197
 H         -4.7786506688       -1.5728011439        1.9217871411
 H         -4.2340161829        0.7573754201        1.4774275576
 H         -5.6360182558        0.2624252101        0.5591334413
 H         -4.0962378618        1.5096453707       -0.9201168327
 H         -4.1739894934       -0.1516286437       -1.4447301366
 H         -2.1437349711        2.2075723753        0.5839053956
 H          0.3071854500        2.0123620726        0.8367165518
 H          0.2386276881       -1.6661972183       -1.2816870059
 H         -2.2108262487       -1.4773456824       -1.5394178850
