22
 energy: -34.799763026499 gnorm: 0.000306449642 xtb: 6.5.1 (fef0646)
N            1.09721661252299        0.37551410503027       -0.01001693457183
C            2.56824439906555        0.32821860741816        0.08855072549378
C            3.16872431798041        1.73073220776728       -0.04158230701540
C            4.66843790237795        1.65589028845825        0.03811035978445
C            5.41586442082495        1.33473118450111       -1.08849535648126
C            6.79395223736489        1.23384917983246       -1.02385863627627
C            7.42894479796752        1.45683704093154        0.18550440330006
Cl           9.17054607773953        1.33461231073243        0.27742801982831
C            6.70774560080988        1.77629987655886        1.32204103931031
C            5.32938886417270        1.87124406630680        1.24025870036375
Cl          -0.03025699324445       -2.45137344209390        0.05556715000119
H            0.69562220989280       -0.59725875233559        0.02768356808286
H            0.80495748668487        0.79074500626775       -0.89787838599734
H            0.69188838969005        0.90788804467011        0.76347617511702
H            2.95010133998371       -0.32112577797937       -0.69846021753292
H            2.84275352289959       -0.11344866187357        1.04575111647376
H            2.79700762182162        2.36784748644892        0.75988029392832
H            2.88366477442051        2.16309922235788       -1.00048776914740
H            4.92266071610560        1.16415734535025       -2.03271640479333
H            7.37160267596941        0.98639162598246       -1.89980746610724
H            7.21886057522546        1.94793057805878        2.25554494060359
H            4.76924244972424        2.12121845760894        2.12772698563571
