  27
        -35.32257389
 N         -3.5333210145       -0.0824688627       -1.2001432387
 C         -2.8055160868       -0.5714295128        0.0204984931
 C         -3.5396332705       -0.1794296861        1.2965650509
 C         -1.3696375399       -0.1014618800        0.0213812893
 C         -1.0671117465        1.2593001264        0.0304222820
 C          0.2392837394        1.7036024559        0.0264995339
 C         -0.3300061590       -1.0205331207        0.0054081168
 C          1.0147593530       -0.6076906948        0.0001304836
 C          1.3081064662        0.7909614486        0.0114993343
 C          2.6530030009        1.2046194277        0.0064103273
 C          3.6732938357        0.2763183234       -0.0099388921
 C          3.3892739287       -1.0819345576       -0.0215067171
 C          2.0824227302       -1.5242313116       -0.0165628962
 H         -4.4887699874       -0.4652048295       -1.2488940630
 H         -3.0381860433       -0.3544803176       -2.0619635910
 H         -3.6101269251        0.9439579656       -1.1956903680
 H         -2.7883446966       -1.6725594857       -0.0385955323
 H         -3.6023584498        0.9036034232        1.3895834904
 H         -3.0286237255       -0.5571473437        2.1822678719
 H         -4.5584621191       -0.5669822019        1.3043751777
 H         -1.8704670835        1.9751871368        0.0408934994
 H          0.4514427852        2.7588959377        0.0346380666
 H         -0.5511573585       -2.0730173469       -0.0044836094
 H          2.8795918193        2.2570878662        0.0151478960
 H          4.6993046222        0.6078792232       -0.0140090953
 H          4.1966839588       -1.7964274076       -0.0346501464
 H          1.8692289493       -2.5795093602       -0.0260354475
