  18
        -21.35004545
 N         -1.4160610284        1.1795004359        0.2361269915
 C         -1.6341049413       -0.1713920190       -0.3559520271
 C         -0.7241597766       -1.2487106800        0.2396649555
 C          0.7385044123       -1.2282047394       -0.2390812399
 C          1.6059999591       -0.1146500055        0.3563135564
 O          1.3845788917        1.1599342577       -0.2189173664
 H         -1.6514303527        1.1929412420        1.2331986541
 H         -1.9608000287        1.9039780809       -0.2418732752
 H         -0.4137438774        1.3953320850        0.1353982612
 H         -1.4834408203       -0.1239374608       -1.4408485533
 H         -2.6884051650       -0.4416260413       -0.2148534529
 H         -1.1539953787       -2.2332050771        0.0114537929
 H         -0.7482878950       -1.1756077430        1.3318941156
 H          0.7652110576       -1.1594130673       -1.3309960666
 H          1.1998977068       -2.1950805128        0.0007106601
 H          2.6774293759       -0.3483091972        0.2792036648
 H          1.4011206679       -0.0081006746        1.4286131637
 H          1.9205046450        1.3145889802       -1.0095086204
  18
        -21.34906011
 N         -1.4419543309        1.1906554858       -0.1684437069
 C         -1.6927612043       -0.2166500753        0.2511122587
 C         -0.6900813691       -1.2073563137       -0.3469214252
 C          0.7031825924       -1.2099916769        0.3136995306
 C          1.6919103867       -0.1647887539       -0.2102087644
 O          1.3711941168        1.1549592953        0.1861409886
 H         -0.4397207744        1.3735737474       -0.0140240366
 H         -1.9961046077        1.8639875640        0.3698239488
 H         -1.6374664608        1.3211283800       -1.1655108303
 H         -2.7184547403       -0.4846563503       -0.0325996013
 H         -1.6614031320       -0.2831265360        1.3450143260
 H         -0.5850842228       -1.0175438572       -1.4199771787
 H         -1.1171783457       -2.2168532288       -0.2767489477
 H          1.1533424010       -2.2038937964        0.1895788163
 H          0.5935499399       -1.0745875580        1.3948041416
 H          1.7323576054       -0.1913802668       -1.3066783965
 H          2.7021688597       -0.3897033031        0.1586054191
 H          2.1003938663        1.7755411158        0.0522183819
  18
        -21.34686521
 N         -1.4583893051        1.2164688354       -0.0322460222
 C         -1.5776667181       -0.2344607337       -0.3825943427
 C         -0.6441415673       -1.1007649538        0.4722285830
 C          0.7607490804       -1.2924231016       -0.1160452427
 C          1.4544970606        0.0080235701       -0.5177097109
 O          1.4215729714        1.0012189835        0.4889853202
 H         -1.8203975149        1.8305022129       -0.7685757415
 H         -0.4588649487        1.4165679734        0.1245423856
 H         -1.9519502178        1.4260289502        0.8406973447
 H         -1.3521420599       -0.3871458128       -1.4444130514
 H         -2.6250772222       -0.5384670773       -0.2594087498
 H         -1.0993063148       -2.0836679603        0.6503991660
 H         -0.5603839637       -0.6386234713        1.4618572504
 H          0.7033459394       -1.9557251249       -0.9876097220
 H          1.3867519957       -1.8234045557        0.6100763218
 H          0.9547477563        0.4508023983       -1.3884860715
 H          2.4948707249       -0.1579833823       -0.8287505853
 H          2.1076744022        0.8803057145        1.1598495595
  18
        -21.34636735
 N         -1.5254340358        1.0195436914        0.5355447135
 C         -1.3375298491        0.0510982434       -0.5836826485
 C         -0.6749677056       -1.2569359048       -0.1557608503
 C          0.6401674643       -1.0829706192        0.6067091361
 C          1.6661722707       -0.2383212551       -0.1402616537
 O          1.2224073970        1.0945294919       -0.2915151079
 H         -2.0519188547        1.8449759779        0.2306454002
 H         -0.6028200367        1.3406547858        0.8636033175
 H         -2.0252188207        0.5870690578        1.3193764804
 H         -0.7235828506        0.5359561242       -1.3529248598
 H         -2.3077623411       -0.1516251582       -1.0541202418
 H         -0.4962117269       -1.8791824010       -1.0411745646
 H         -1.3786605004       -1.8288252870        0.4609008781
 H          1.0655884356       -2.0660258167        0.8451376617
 H          0.4416874562       -0.6065884898        1.5720339220
 H          1.8526025791       -0.6566547428       -1.1376523276
 H          2.6219389426       -0.2236271072        0.4007729964
 H          1.8970192657        1.6762463857       -0.6682537563
  18
        -21.34500194
 N         -1.6112961892        0.9934365278        0.5579002097
 C         -1.3163269918        0.0832423990       -0.5875807890
 C         -0.6620118902       -1.2321320546       -0.1712962953
 C          0.6370926313       -1.0693268035        0.6193938334
 C          1.6923569344       -0.2535412309       -0.1187433379
 O          1.2611179035        1.0751129334       -0.3298206393
 H         -0.7329998193        1.3139133999        0.9801981182
 H         -2.1670603211        0.5156027594        1.2747803463
 H         -2.1276515929        1.8239466440        0.2497552165
 H         -0.6574639161        0.6133789803       -1.2864274054
 H         -2.2446960833       -0.1145585935       -1.1378943691
 H         -0.4628921421       -1.8377374851       -1.0638011207
 H         -1.3783971575       -1.8149938998        0.4197566628
 H          1.0415329975       -2.0553804043        0.8808457857
 H          0.4243949651       -0.5760106818        1.5729098039
 H          1.9094646039       -0.7039614694       -1.0958452580
 H          2.6295929357       -0.2268155207        0.4533268405
 H          1.9551051126        1.6461586211       -0.6878754524
  18
        -21.34492061
 N         -1.6172667055        0.9914097311        0.5593740687
 C         -1.3154895357        0.0853274608       -0.5876350155
 C         -0.6610224904       -1.2303678280       -0.1726410593
 C          0.6366772083       -1.0680355121        0.6203596021
 C          1.6942498003       -0.2545497858       -0.1170340732
 O          1.2643575009        1.0737733435       -0.3325950680
 H         -2.1337426645        1.8218533791        0.2514877736
 H         -0.7417505951        1.3123690592        0.9870818452
 H         -2.1755397091        0.5103169491        1.2721069186
 H         -0.6544285778        0.6186754774       -1.2819397421
 H         -2.2410948237       -0.1123087822       -1.1426531805
 H         -0.4599213030       -1.8342703251       -1.0658559211
 H         -1.3780472251       -1.8146862918        0.4161878254
 H          1.0395450337       -2.0542036102        0.8838104360
 H          0.4227313236       -0.5732326672        1.5728108782
 H          1.9135901658       -0.7073824160       -1.0925290219
 H          2.6299972907       -0.2270166201        0.4574310367
 H          1.9597602095        1.6436183105       -0.6898569257
  18
        -21.34480102
 N         -1.6276388069        0.9882283896        0.5612445236
 C         -1.3136052262        0.0888799635       -0.5878350175
 C         -0.6597817936       -1.2274250346       -0.1738790637
 C          0.6365606774       -1.0663217533        0.6215212630
 C          1.6972017499       -0.2564651882       -0.1154366467
 O          1.2697540080        1.0717950348       -0.3361502786
 H         -2.1456218857        1.8178322580        0.2536762947
 H         -0.7571569340        1.3109541485        0.9975284041
 H         -2.1888563064        0.5011927042        1.2675145186
 H         -0.6479762067        0.6271929698       -1.2739122618
 H         -2.2340544504       -0.1082189840       -1.1515722471
 H         -0.4569000308       -1.8298548798       -1.0676739011
 H         -1.3779502406       -1.8126057317        0.4126849587
 H          1.0369595179       -2.0528276923        0.8874517547
 H          0.4218180812       -0.5694132978        1.5726992181
 H          1.9185464137       -0.7122012709       -1.0891381795
 H          2.6314500846       -0.2288934409        0.4614146829
 H          1.9682876268        1.6411896194       -0.6878926063
  18
        -21.34464605
 N         -1.6355645774        0.9845587565        0.5644314444
 C         -1.3124158485        0.0924686330       -0.5878220922
 C         -0.6578278443       -1.2245478849       -0.1773703405
 C          0.6352694229       -1.0642652452        0.6233332901
 C          1.7002551235       -0.2573540843       -0.1105727502
 O          1.2736765767        1.0692719317       -0.3422441010
 H         -2.1525840348        1.8152264447        0.2581570526
 H         -0.7690280671        1.3062065896        1.0092925123
 H         -2.2013146106        0.4925446005        1.2636249310
 H         -0.6444390918        0.6361403408       -1.2673082665
 H         -2.2291953830       -0.1038621804       -1.1577823875
 H         -0.4506051442       -1.8228813260       -1.0729157263
 H         -1.3771274888       -1.8133286900        0.4041699068
 H          1.0331904914       -2.0509664148        0.8922793021
 H          0.4170271220       -0.5658056637        1.5728533990
 H          1.9287827693       -0.7186550279       -1.0799926815
 H          2.6302907880       -0.2254844554        0.4728691057
 H          1.9729677353        1.6352939825       -0.6981265780
  18
        -21.34448683
 N         -1.6466410498        0.9806418157        0.5670876382
 C         -1.3105289888        0.0967040881       -0.5878202263
 C         -0.6560611252       -1.2210846032       -0.1797860528
 C          0.6347204961       -1.0622544622        0.6248597944
 C          1.7037849500       -0.2590769575       -0.1072298190
 O          1.2792527131        1.0666551191       -0.3474293241
 H         -0.7856027075        1.3028845772        1.0218023467
 H         -2.2165518594        0.4822631464        1.2582988538
 H         -2.1643227618        1.8111860494        0.2613984507
 H         -0.6381157255        0.6462648505       -1.2581300599
 H         -2.2217721035       -0.0985781158       -1.1669511537
 H         -0.4457174746       -1.8164874090       -1.0765523342
 H         -1.3766708343       -1.8121312454        0.3978038591
 H          1.0297920031       -2.0493466494        0.8965758682
 H          0.4144419995       -0.5619047189        1.5728920804
 H          1.9372140392       -0.7250052798       -1.0732712548
 H          2.6308449416       -0.2250586102        0.4807999999
 H          1.9807766672        1.6311385426       -0.7014116788
  18
        -21.34438958
 N         -1.6534800521        0.9780154031        0.5688509599
 C         -1.3093365809        0.0994549932       -0.5878208345
 C         -0.6548683321       -1.2188517174       -0.1814952874
 C          0.6342578511       -1.0608508303        0.6259151888
 C          1.7060222267       -0.2601334651       -0.1049151776
 O          1.2826553932        1.0649182628       -0.3509183063
 H         -2.2262782784        0.4756064709        1.2545894975
 H         -2.1710864938        1.8088469662        0.2638482665
 H         -0.7959399912        1.3001720130        1.0302747865
 H         -0.6343987313        0.6528093655       -1.2524322114
 H         -2.2171973437       -0.0951892918       -1.1724597511
 H         -0.4423411163       -1.8121985681       -1.0791020963
 H         -1.3763070790       -1.8114771548        0.3934307992
 H          1.0274122441       -2.0481323695        0.8997145827
 H          0.4125152472       -0.5590867725        1.5728434473
 H          1.9426693863       -0.7291337292       -1.0686888957
 H          2.6310372579       -0.2246074503        0.4862151706
 H          1.9856858510        1.6281577859       -0.7038835463
  18
        -21.34431568
 N         -1.4790603350        1.2087858321       -0.0320173019
 C         -1.5826771358       -0.2438635977       -0.3757854973
 C         -0.6364091532       -1.0887814576        0.4863645089
 C          0.7584784519       -1.2948427163       -0.1169026418
 C          1.4738673582       -0.0038103597       -0.5153166156
 O          1.4182863281        0.9772675150        0.5071145245
 H         -1.9818156378        1.4199492173        0.8353933248
 H         -1.8347732988        1.8184377680       -0.7754465735
 H         -0.4813853447        1.4083423040        0.1347092901
 H         -1.3528988903       -0.3994486729       -1.4363462582
 H         -2.6262435273       -0.5604690927       -0.2519183443
 H         -1.0893581657       -2.0660249771        0.6979066948
 H         -0.5307917142       -0.5996590619        1.4615458494
 H          0.6902946284       -1.9604188569       -0.9857701401
 H          1.3830496060       -1.8249703799        0.6123019332
 H          1.0142998101        0.4334961592       -1.4109399030
 H          2.5225411579       -0.2106245537       -0.7691978474
 H          2.1695736955        1.5866599758        0.4990821563
  18
        -21.34162646
 N         -2.8171591012        0.6719526188        0.2179014706
 C         -1.7893733456       -0.2902726836       -0.2830605828
 C         -0.3967337138       -0.0008026070        0.2659452087
 C          0.6824378889       -0.9447701711       -0.2624998513
 C          2.0643867363       -0.5146090377        0.2138340494
 O          2.3521442463        0.8249309317       -0.1280584497
 H         -2.8753025981        0.6370175202        1.2390053948
 H         -3.7428834677        0.4550483198       -0.1611637280
 H         -2.5783487495        1.6291929694       -0.0542938055
 H         -1.7704252949       -0.2580784475       -1.3786595960
 H         -2.0884209966       -1.3115773052       -0.0197848957
 H         -0.4165042540       -0.0409879145        1.3602701610
 H         -0.1127915452        1.0298935554        0.0258660794
 H          0.6598233740       -0.9483699735       -1.3570342243
 H          0.4689752169       -1.9748236708        0.0449185239
 H          2.8626624167       -1.1691823561       -0.1627963960
 H          2.1178400683       -0.5532028673        1.3093488278
 H          2.6052766594        0.9319679768       -1.0571303172
  18
        -21.34130295
 N         -2.6173145758       -0.4326542517        0.6037961530
 C         -1.8340060969        0.2149644463       -0.4914882168
 C         -0.4045793948        0.5745350414       -0.0891584101
 C          0.4904301779       -0.6353125507        0.1730481662
 C          1.9322004736       -0.2139219902        0.4342198065
 O          2.4745432173        0.5408126826       -0.6288227039
 H         -2.6430546399        0.1672038461        1.4335394945
 H         -2.2039904897       -1.3303257613        0.8739679843
 H         -3.5830725081       -0.6111330260        0.3115577913
 H         -2.3684500930        1.1173337703       -0.8144093374
 H         -1.8175805655       -0.4489824198       -1.3634898912
 H         -0.4257420221        1.2119809811        0.8012335620
 H          0.0634430021        1.1892870358       -0.8685396505
 H          0.4593578458       -1.3070047115       -0.6909929143
 H          0.1063542674       -1.2159150526        1.0183390622
 H          2.5879417488       -1.0703932416        0.6441847671
 H          1.9831772154        0.4419163697        1.3127786914
 H          2.7400852387       -0.0044126775       -1.3843870333
  18
        -21.34116906
 N         -2.6088514005        0.7228284364        0.1031008319
 C         -1.3370625062        0.1857453838       -0.4706349946
 C         -0.4951032294       -0.5684109895        0.5531243398
 C          0.7583164072       -1.2241191798       -0.0321509693
 C          1.7426805689       -0.1983180175       -0.5841329779
 O          2.0329422751        0.8259972468        0.3434721514
 H         -3.1502329623        1.2271609715       -0.6043140171
 H         -2.4108066704        1.3677627736        0.8725083675
 H         -3.1904170932       -0.0367174899        0.4668348251
 H         -0.7577717502        1.0162635297       -0.8899286105
 H         -1.5742093623       -0.4741177461       -1.3132438726
 H         -1.1195091661       -1.3252356842        1.0416164017
 H         -0.1969992306        0.1255194670        1.3468626456
 H          0.4762602901       -1.9383659785       -0.8144153476
 H          1.2569095146       -1.8168204383        0.7429235079
 H          1.3202464383        0.3097569511       -1.4601560788
 H          2.6791460232       -0.6603396415       -0.9251445042
 H          2.6810859670        0.5593235387        1.0125517362
  18
        -21.34111025
 N         -2.3552072989        0.8038665536       -0.5385799196
 C         -1.9144113480       -0.4271360226        0.1848752589
 C         -0.4357855896       -0.4136787620        0.5708893523
 C          0.5196208987       -0.5276114580       -0.6138457221
 C          1.9724398948       -0.4488882678       -0.1592972691
 O          2.1968282163        0.7441571961        0.5637301496
 H         -2.1599682553        1.6406850769        0.0190137028
 H         -3.3613832381        0.7787198426       -0.7306381976
 H         -1.8706581249        0.9012315379       -1.4360873657
 H         -2.1274212082       -1.3062767308       -0.4341013629
 H         -2.5331889079       -0.5404433358        1.0839888273
 H         -0.2248169496       -1.2267412318        1.2760776148
 H         -0.2048114089        0.5079633093        1.1175634481
 H          0.3316848310        0.2926494940       -1.3136839195
 H          0.3331809086       -1.4546513186       -1.1678112945
 H          2.6563725267       -0.4764377732       -1.0187187344
 H          2.2147070331       -1.2971669509        0.4935205659
 H          3.1134046256        0.8531323190        0.8539215888
  18
        -21.34100647
 N         -2.5434907638        0.8061860774       -0.1729951829
 C         -2.0237118722       -0.5157211823        0.2910757889
 C         -0.6417157644       -0.8569947962       -0.2639840966
 C          0.4732238406        0.0467475541        0.2667929551
 C          1.8545702471       -0.3174192337       -0.2702220096
 O          2.8592010320        0.5955252814        0.1187776573
 H         -2.5817540098        0.8413436219       -1.1959981398
 H         -1.9474339315        1.5745044926        0.1494261329
 H         -3.4881862648        0.9767638308        0.1851837061
 H         -2.7438520293       -1.2922377350        0.0033917645
 H         -1.9961646520       -0.5268371615        1.3869135166
 H         -0.6672510665       -0.8014317580       -1.3574186112
 H         -0.3949634953       -1.9002385635       -0.0321812141
 H          0.4847939883        0.0149275835        1.3609400136
 H          0.2696584871        1.0899868294        0.0073838785
 H          1.8550498001       -0.2999198054       -1.3680704671
 H          2.1560073136       -1.3302829624        0.0264734106
 H          3.0373557541        0.5805725767        1.0705949967
  18
        -21.34092040
 N         -2.3710688592        0.7816195370        0.5005842684
 C         -1.9125350723       -0.4402863666       -0.2276875164
 C         -0.4300754029       -0.4116828232       -0.5989388543
 C          0.5145487857       -0.5489933270        0.5935792281
 C          1.9733261797       -0.4519281445        0.1609602084
 O          2.2600459158        0.7631500540       -0.4984978541
 H         -3.3783968907        0.7450540949        0.6842999417
 H         -2.1803214009        1.6242872815       -0.0499822463
 H         -1.8948882970        0.8772798673        1.4027542136
 H         -2.5216369571       -0.5514477800       -1.1337317926
 H         -2.1246120120       -1.3261212170        0.3820952424
 H         -0.2009815477        0.5189231624       -1.1296695741
 H         -0.2097993685       -1.2103128971       -1.3179005572
 H          0.3295028145       -1.4978238321        1.1105608683
 H          0.3050562322        0.2358195344        1.3255522447
 H          2.2075183260       -1.2404641395       -0.5662664932
 H          2.6704471154       -0.5848732235        0.9992969201
 H          2.3415982173        1.5139716285        0.1086168518
  18
        -21.34084605
 N         -3.1366044936        0.0268058109        0.4055535552
 C         -1.8938478840       -0.0653455185       -0.4201537854
 C         -0.6183225113        0.0654120479        0.4060701275
 C          0.6593623079       -0.0409569250       -0.4323881053
 C          1.9355069767        0.0938848320        0.3934324989
 O          3.1128038080       -0.1166929359       -0.3575443078
 H         -3.9748411248       -0.0696388377       -0.1741642786
 H         -3.1832045122        0.9289545095        0.8863568625
 H         -3.1524872684       -0.7115317242        1.1139403632
 H         -1.9156183339        0.7123589990       -1.1925048091
 H         -1.8899945120       -1.0201913249       -0.9587372405
 H         -0.6103063300       -0.7025813746        1.1867752288
 H         -0.6275523396        1.0209872156        0.9412091802
 H          0.6491702084        0.7209030137       -1.2182822352
 H          0.6824156877       -1.0013108699       -0.9587381096
 H          1.9578538815       -0.6625857797        1.1887876987
 H          1.9986662255        1.0706677047        0.8899489387
 H          3.2568782332        0.5623064307       -1.0328166018
  18
        -21.34083666
 N         -2.8063119102        0.6852017348        0.2019327863
 C         -1.7864224724       -0.2865593488       -0.2960279018
 C         -0.3923127660       -0.0070804709        0.2536037914
 C          0.6810831120       -0.9556959133       -0.2751109722
 C          2.0626113406       -0.5285125887        0.2043507314
 O          2.2996798512        0.8220072333       -0.1380131053
 H         -2.5589946829        1.6396509984       -0.0723050949
 H         -2.8652599354        0.6532482766        1.2232041069
 H         -3.7337325811        0.4753492863       -0.1771201221
 H         -1.7660514629       -0.2568931192       -1.3916253642
 H         -2.0936843487       -1.3048299315       -0.0307200146
 H         -0.4114497663       -0.0454873292        1.3479037142
 H         -0.0979772662        1.0200934295        0.0085715098
 H          0.6684067759       -0.9373208530       -1.3705223929
 H          0.4628846793       -1.9886757649        0.0184828339
 H          2.8476995398       -1.1534182097       -0.2430280220
 H          2.1338645870       -0.6236567833        1.2953638647
 H          3.1757252586        1.1375750066        0.1251734528
  18
        -21.34053596
 N         -2.2570635709        0.8104498254       -0.3707794055
 C         -1.6947239174       -0.1532886517        0.6236030772
 C         -0.7232745265       -1.1648897292        0.0159688153
 C          0.5586621897       -0.5555318210       -0.5636914647
 C          1.4683253175        0.0939042827        0.4757411687
 O          2.5986931772        0.7241476843       -0.0903317451
 H         -1.5234569279        1.4040758034       -0.7701015339
 H         -2.9500395238        1.4272620641        0.0645362344
 H         -2.7157954863        0.3120300216       -1.1393216064
 H         -2.5287488604       -0.6828451143        1.1018405579
 H         -1.2061225606        0.4048937865        1.4295726804
 H         -1.2477628590       -1.7245175065       -0.7673923495
 H         -0.4498611301       -1.9132306712        0.7697925214
 H          0.3114743790        0.1887706617       -1.3270014237
 H          1.1266909997       -1.3272167598       -1.0950440960
 H          1.8037706083       -0.6269302780        1.2332820481
 H          0.9382693082        0.8882389600        1.0143639084
 H          3.2157789583        0.1012924928       -0.5015071710
