15
 energy: -19.029342803109 gnorm: 0.000268099289 xtb: 6.5.1 (fef0646)
N            0.96649603666362        0.15702911447861       -0.03192538707593
C            2.44300219383094        0.17909249319870       -0.01226673976191
C            2.98194685416820        1.52472324504397       -0.48739328926872
C            4.50551017049971        1.54550969401814       -0.43831211129569
Cl          -0.08371031442629       -2.59328692388551        0.75295899365773
H            0.60648469428885       -0.78767267644920        0.25826038761947
H            0.61207525055729        0.34042573422830       -0.97375500864089
H            0.58084215528422        0.84921162136433        0.61450704913697
H            2.80879567997827       -0.62322991663726       -0.65271993766690
H            2.77919175369197       -0.02680551651062        1.00369706613115
H            2.59547460636364        2.32323278646144        0.14692332677603
H            2.65757937087314        1.71143405380526       -1.51178831912427
H            4.85884053554586        1.38998940009961        0.57789368293695
H            4.88533853952384        2.50083730523226       -0.78977233783748
H            4.92011247315650        0.76077958555221       -1.06612737558678
