36
 energy: -55.104230852871 gnorm: 0.000458019643 xtb: 6.5.1 (fef0646)
N            2.85279381023351        0.38815714859423        2.80534962157960
C            2.36659459703320       -0.83513934091787        2.17105293062833
C            2.89782602106120       -0.92290737437991        0.73532193454472
C            4.39579388051233       -1.02722412032217        0.72445045955888
C            5.02507912886088       -2.25597548172539        0.89345145932638
C            6.40117916094775       -2.35303169046115        0.92138813915675
C            7.20158718981988       -1.21578079217046        0.78609584179500
C            8.65166791166239       -1.25573303379005        0.80184505920050
C            9.41603715435744       -2.35109131041221        0.69051660838031
C           10.86731481425026       -2.37814939107983        0.68948772231223
C           11.64298366574346       -1.29159575093023        1.09947397502328
C           13.01768436793852       -1.38914388945143        1.06516994737872
F           13.75155880139778       -0.32908335481204        1.47143298705057
C           13.67313092370872       -2.52968712665949        0.63643947864551
C           12.90442064520569       -3.60982999149514        0.23619468624041
C           11.52540909537809       -3.53771641426712        0.26724355698307
C            6.56172516732795        0.01759749594279        0.63205712709096
C            5.18514096427897        0.11070997726801        0.59686598967018
Cl           2.20262502009389        2.73203248130474        1.17657227873467
H            2.47305332130461        0.49889748056250        3.73856888016367
H            2.48865467566216        1.62177639220922        1.94463961176827
H            3.86713675228720        0.37817099515667        2.85716568341216
H            1.27555627251794       -0.79024782617991        2.15357687250960
H            2.66898584627963       -1.73347438111806        2.72817109638210
H            2.58317327531610       -0.03037225831502        0.19574875684071
H            2.45768018530135       -1.79918334523745        0.25744333450715
H            4.42517468955720       -3.14940460039781        0.99947046107215
H            6.85848671238938       -3.32052562353851        1.06114715856650
H            9.12389595045723       -0.28513217865785        0.87857273100179
H            8.94894224654273       -3.31703524083500        0.55238398892670
H           11.19247961434075       -0.38025195211351        1.45749447231311
H           14.75065460574980       -2.56151920627483        0.62488155878963
H           13.38948264653226       -4.51348419355013       -0.10089397071281
H           10.93996516891255       -4.38858337917778       -0.04947684963950
H            7.15857832512551        0.91262811875867        0.52833044822295
H            4.71182739191822        1.07258315846972        0.46542596256902
