12
 energy: -15.866191486204 gnorm: 0.000421820762 xtb: 6.5.1 (fef0646)
N            1.27364164441555       -0.24130740597728        0.44793161270655
C            2.73769049599743       -0.37840807437352        0.28948763337665
C            3.03771764650181       -1.12783930475051       -0.99607769682646
Cl           0.13356413312388        1.28590859353370       -1.95202304603666
H            1.02652543105906        0.27533628557277        1.29473016498465
H            0.82618816764078       -1.16099446963851        0.45882126941997
H            0.87839932755687        0.28215998298712       -0.37424885104856
H            3.14678709680659       -0.91092367232541        1.14880048334482
H            3.17279600234109        0.61930761738538        0.24214259022788
H            2.67545280590369       -2.15107344320385       -0.94885662989220
H            4.10661816105260       -1.15110144240975       -1.18131333501618
H            2.55428908760072       -0.62533466680023       -1.83083419524050
