21
 energy: -25.358674654552 gnorm: 0.000881590358 xtb: 6.5.1 (fef0646)
N            1.29302556669350        0.04697676637339       -0.43764216525841
C            2.76448530819390        0.06984585944740       -0.30482281780758
C            3.18331754219238        1.11996695692421        0.71581341517884
C            4.69126263039941        1.09575082467125        0.95481631923270
C            5.12428956436347        2.14742014603230        1.97361357614499
C            6.63304375694011        2.13585948761920        2.19086029407571
Cl           0.00107645238714       -0.51676779568745        2.27677325464580
H            0.98647442882523       -0.67207587870295       -1.09572457957751
H            0.93916274517090        0.96013589681918       -0.73387228724350
H            0.85565419829080       -0.16200910875098        0.49533205222090
H            3.21442718806813        0.28520990430228       -1.27490291779208
H            3.09559140952906       -0.91175221288176        0.03321979312832
H            2.65889265561721        0.92476738482824        1.65324088817972
H            2.89477340956854        2.11391563811612        0.37109287391721
H            5.21348444329755        1.27666537959349        0.01317675736261
H            4.98644285096564        0.10903675799651        1.31668058554390
H            4.61798355485721        1.95887177388488        2.92334713994055
H            4.81734620135534        3.13718154285800        1.62858705461723
H            6.95938565725272        1.16234716518470        2.55044120487001
H            6.92047682454644        2.88508250830292        2.92464688769713
H            7.15357361148789        2.34937100306760        1.25994267092351
