18
 energy: -22.196437179075 gnorm: 0.000306065764 xtb: 6.5.1 (fef0646)
N            1.13030280784935       -0.18058898064939        0.43813435294782
C            2.58842371371246       -0.24009252386941        0.20678741737619
C            2.95444657231835       -1.25869839398798       -0.87445901075818
C            2.57330363123219       -0.74612791458801       -2.26015736908374
C            4.45238348497745       -1.55405713619685       -0.80908990680706
Cl          -0.78226784443865        0.82350313363612       -1.74059564101231
H            0.90563331656494        0.45992511317169        1.20283821611165
H            0.76098554561556       -1.10989082483161        0.65512561796111
H            0.60150834012858        0.16392901021579       -0.39942217473035
H            3.07693074374833       -0.51713489343207        1.14224627406220
H            2.93556085430728        0.74729865534787       -0.09641104984287
H            2.40981879848026       -2.18851724499344       -0.68423281530871
H            3.16464590788818        0.12986489733072       -2.51752052703468
H            1.52311813235070       -0.46992961530924       -2.31344423635622
H            2.75669856413243       -1.50885940965741       -3.01290532500930
H            5.02479871501126       -0.64257862447523       -0.96209521987281
H            4.73061730575032       -2.26212334043564       -1.58469809265335
H            4.72461141034983       -1.97808190727504        0.15374948999801
