  21
        -25.71970085
 N         -2.5773832298       -0.7512711927        0.9167849599
 C         -2.4756507828        0.5050143381        0.1209734034
 C         -1.4484116966        0.4110359545       -1.0066958938
 C         -0.0465969022        0.1981631051       -0.5170041324
 C          0.5540758271       -1.0651750089       -0.5774923886
 C          1.8528122824       -1.2592256001       -0.1149758006
 C          2.5692074633       -0.1937207249        0.4184192085
 C          1.9852865515        1.0660226987        0.4888003768
 C          0.6868493268        1.2597327173        0.0256164394
 H         -3.2713999764       -0.6682509815        1.6752931671
 H         -1.6733316823       -0.9926362542        1.3484353319
 H         -2.8630351741       -1.5446024170        0.3232528347
 H         -2.2145652600        1.3334539903        0.7903982153
 H         -3.4655828952        0.7512656604       -0.2850003590
 H         -1.4736591090        1.3174028188       -1.6234847463
 H         -1.7224370234       -0.4064907731       -1.6819928777
 H          0.0073344686       -1.8917840762       -0.9999714348
 H          2.3072521194       -2.2360760147       -0.1769905112
 H          3.5781558551       -0.3431216289        0.7722242446
 H          2.5418399244        1.8955856517        0.8972794958
 H          0.2420029741        2.2400810261        0.0717378046
  21
        -25.71960801
 N         -2.5819957341       -0.7111933060        0.9445750940
 C         -2.4769989868        0.5168676980        0.1063544007
 C         -1.4481866334        0.3826482652       -1.0158759073
 C         -0.0472455523        0.1802779516       -0.5188076777
 C          0.5743441107       -1.0716769921       -0.6028925438
 C          1.8748612855       -1.2537388434       -0.1404486561
 C          2.5720774580       -0.1879381088        0.4171867452
 C          1.9672012205        1.0603121628        0.5111516767
 C          0.6674233033        1.2424583055        0.0470866561
 H         -1.6780563607       -0.9414852527        1.3822786508
 H         -2.8714761438       -1.5230229203        0.3793354748
 H         -3.2745807412       -0.5992784272        1.7013707083
 H         -2.2161420028        1.3674520165        0.7474253233
 H         -3.4658665759        0.7505636448       -0.3095297104
 H         -1.4688655296        1.2687257729       -1.6616490838
 H         -1.7252416703       -0.4550286044       -1.6647230814
 H          0.0427686786       -1.8983847556       -1.0441579009
 H          2.3460012971       -2.2212216940       -0.2218871867
 H          3.5824111944       -0.3277970487        0.7709405205
 H          2.5087986059        1.8902732855        0.9384791627
 H          0.2065643043        2.2143401061        0.1109219689
  21
        -25.71632279
 N         -3.7102913379       -0.0475759750        0.3161310027
 C         -2.2475688321       -0.1466657534        0.5955399018
 C         -1.3879422797        0.1691346787       -0.6249583730
 C          0.0853872775        0.0886950952       -0.3504583486
 C          0.7786196919       -1.1174370292       -0.5072196472
 C          2.1412882975       -1.1965296824       -0.2331514183
 C          2.8300716820       -0.0718646735        0.2072133797
 C          2.1539556972        1.1313173605        0.3749402263
 C          0.7913738831        1.2101711295        0.1009761555
 H         -4.2752514372       -0.2684978102        1.1500895274
 H         -3.9919111094       -0.6995885766       -0.4305754376
 H         -3.9678286226        0.9027001916        0.0102240135
 H         -2.0136947512       -1.1535226764        0.9618902639
 H         -1.9871832811        0.5326476005        1.4160576295
 H         -1.6329949152        1.1687203914       -0.9996648796
 H         -1.6428388503       -0.5134633675       -1.4425963765
 H          0.2486828464       -1.9908787493       -0.8495568333
 H          2.6645987121       -2.1311262211       -0.3645427000
 H          3.8871946480       -0.1324521374        0.4175306509
 H          2.6871378544        2.0055549030        0.7157432938
 H          0.2712519520        2.1447679184        0.2312294704
  21
        -25.71395869
 N         -3.0630544485       -1.0482643591        0.3583266361
 C         -2.4360010412       -0.0719020935       -0.5817252592
 C         -1.4410015368        0.8780855977        0.1056279768
 C          0.0012847064        0.4559158059        0.0368273352
 C          0.3875999820       -0.8859516595        0.1323377183
 C          1.7302059829       -1.2515249597        0.0961633071
 C          2.7141247854       -0.2776547739       -0.0284978153
 C          2.3514527204        1.0613855585       -0.1139189623
 C          1.0079118310        1.4241546374       -0.0779168223
 H         -3.6931919365       -1.6997579723       -0.1337862907
 H         -3.6259539518       -0.5617667600        1.0716155414
 H         -2.3634564978       -1.6138617160        0.8599921120
 H         -3.2415395292        0.5013427323       -1.0608399369
 H         -1.9372789800       -0.6048830435       -1.4003057424
 H         -1.7242300647        1.0016166866        1.1564471084
 H         -1.5248881994        1.8792580910       -0.3341649582
 H         -0.3641170061       -1.6482454713        0.2297081073
 H          2.0091194666       -2.2916241043        0.1665201773
 H          3.7558659560       -0.5597336822       -0.0558641364
 H          3.1130293355        1.8206869239       -0.2057852697
 H          0.7355284309        2.4652999500       -0.1357842635
  21
        -25.71386104
 N         -3.0939484392       -1.0584079679        0.2697194849
 C         -2.4253193933       -0.0309778666       -0.5829545189
 C         -1.4377388870        0.8544195400        0.1970476893
 C          0.0056328408        0.4475533193        0.0824664110
 C          0.4020984895       -0.8912064882        0.1765464664
 C          1.7449296382       -1.2495583433        0.0997394730
 C          2.7184011736       -0.2712282535       -0.0658322062
 C          2.3453118884        1.0649881249       -0.1516968421
 C          1.0015849647        1.4207836994       -0.0751192655
 H         -2.4173493093       -1.6759352587        0.7397402657
 H         -3.7276080481       -1.6569811048       -0.2816469181
 H         -3.6611906438       -0.6124697000        1.0063132601
 H         -3.2069803449        0.5855961649       -1.0475773797
 H         -1.9084668127       -0.5173861594       -1.4192338418
 H         -1.7191995417        0.8684366938        1.2554991733
 H         -1.5300868317        1.8947274093       -0.1374080608
 H         -0.3426537788       -1.6554530091        0.3078686432
 H          2.0321132434       -2.2873592667        0.1706723736
 H          3.7603694306       -0.5476117527       -0.1245182397
 H          3.0991221033        1.8276802236       -0.2743410456
 H          0.7215387463        2.4598846303       -0.1325927189
  21
        -25.71355787
 N         -3.7593831758       -0.2304540173        0.0192052028
 C         -2.3182722236       -0.6176820745       -0.0267092882
 C         -1.3823988417        0.5804794433        0.1190776314
 C          0.0917232624        0.2853417785        0.0392801203
 C          0.6088418702       -1.0154974957       -0.0273031821
 C          1.9821708243       -1.2375741271       -0.0890142647
 C          2.8647722551       -0.1639427654       -0.0821186549
 C          2.3708620992        1.1331266224       -0.0127121162
 C          0.9978775883        1.3537011314        0.0481158760
 H         -3.9935319095        0.4251279967       -0.7405994514
 H         -3.9924590704        0.2320686199        0.9101841463
 H         -4.3796908844       -1.0493765577       -0.0762429554
 H         -2.1153370191       -1.1346474407       -0.9721852800
 H         -2.1181410647       -1.3463085903        0.7676648226
 H         -1.5870624774        1.0798346092        1.0723750690
 H         -1.6307047646        1.3174754092       -0.6522061932
 H         -0.0592557808       -1.8594311604       -0.0307984448
 H          2.3634658388       -2.2458070722       -0.1414991686
 H          3.9293794138       -0.3368005988       -0.1292697577
 H          3.0528621329        1.9696042700       -0.0048925841
 H          0.6210192645        2.3618656872        0.1045739236
  21
        -25.71322784
 N         -3.3065603717       -0.7870074282        0.4255554223
 C         -2.3422037995        0.3500599653        0.4827932775
 C         -1.4076080821        0.4044199426       -0.7416583507
 C          0.0412641750        0.2156816775       -0.3966261509
 C          0.6094598541       -1.0629545235       -0.3612579436
 C          1.9493127827       -1.2378991903       -0.0259757790
 C          2.7393453376       -0.1369452445        0.2855283465
 C          2.1870530331        1.1387563489        0.2638861496
 C          0.8472926090        1.3132942522       -0.0715141416
 H         -2.8170680659       -1.6922465081        0.3726492973
 H         -3.9169358955       -0.7141391507       -0.4017543857
 H         -3.9168856643       -0.8131617452        1.2570365794
 H         -1.7442631649        0.2683657595        1.3992385238
 H         -2.9036452501        1.2881800070        0.5874957208
 H         -1.5255627325        1.3532601770       -1.2787609456
 H         -1.7062512584       -0.3637107245       -1.4632327110
 H          0.0011705856       -1.9182529078       -0.6039133483
 H          2.3766820189       -2.2286699489       -0.0106050337
 H          3.7791432453       -0.2721217463        0.5423736091
 H          2.7989606781        1.9946436369        0.5044909940
 H          0.4230979708        2.3037164934       -0.0879917660
  21
        -25.71083418
 N         -2.8380957661        0.7810409800        1.0327045534
 C         -2.4489943022        0.4767750115       -0.3947835329
 C         -1.4903597987       -0.7128353072       -0.5362548862
 C         -0.0412920868       -0.3914844799       -0.2965182979
 C          0.9535901959       -1.0169515152       -1.0600033127
 C          2.3019565927       -0.7553953404       -0.8320352072
 C          2.6806379253        0.1311689575        0.1694383831
 C          1.7079707594        0.7535886774        0.9432067953
 C          0.3611958337        0.4907172705        0.7120477105
 H         -3.8558229344        0.6914203897        1.1753682590
 H         -2.5873937315        1.7414275405        1.3150016840
 H         -2.3946233527        0.1301763479        1.6985061772
 H         -2.0012527103        1.3626884429       -0.8626575525
 H         -3.3644657836        0.2873009134       -0.9724884834
 H         -1.5846377484       -1.1412002563       -1.5414691399
 H         -1.7967819256       -1.5120561998        0.1469686504
 H          0.6685351328       -1.7127838704       -1.8319831823
 H          3.0548633428       -1.2436684599       -1.4317201744
 H          3.7261776979        0.3333713017        0.3469785142
 H          1.9989565071        1.4396224197        1.7237590806
 H         -0.3846153330        0.9774692626        1.3134953025
