  21
        -25.82938553
 N         -2.5540802656       -0.7157171489       -0.9628241214
 C         -2.4683330501        0.4989412834       -0.1001728712
 C         -1.4513297244        0.3515191404        1.0305297165
 C         -0.0476455770        0.1720162699        0.5368006035
 C          0.6596872659        1.2534934486        0.0033271856
 C          1.9535306660        1.0887892644       -0.4787918907
 C          2.5585917481       -0.1613626805       -0.4354267361
 C          1.8681969192       -1.2455034679        0.0922128358
 C          0.5740564729       -1.0800452054        0.5739948406
 H         -2.8399399752       -1.5329409490       -0.4123274835
 H         -1.6421318768       -0.9234354750       -1.3852228373
 H         -3.2334630321       -0.5908796063       -1.7219772807
 H         -3.4621792768        0.7186066957        0.3082753365
 H         -2.2034054908        1.3609152410       -0.7228049025
 H         -1.7248822262       -0.5011974985        1.6594582041
 H         -1.4836676493        1.2244895074        1.6918967545
 H          0.1945658976        2.2236518028       -0.0277989682
 H          2.4877243109        1.9316633400       -0.8857308315
 H          3.5616563322       -0.2893299205       -0.8087296002
 H          2.3364146309       -2.2154332058        0.1293277764
 H          0.0452892142       -1.9210395604        0.9878743343
