  21
  -25.829385530000000        7.4237222329699315E-002 !md1
 N         -2.5540802656       -0.7157171489       -0.9628241214
 C         -2.4683330501        0.4989412834       -0.1001728712
 C         -1.4513297244        0.3515191404        1.0305297165
 C         -0.0476455770        0.1720162699        0.5368006035
 C          0.6596872659        1.2534934486        0.0033271856
 C          1.9535306660        1.0887892644       -0.4787918907
 C          2.5585917481       -0.1613626805       -0.4354267361
 C          1.8681969192       -1.2455034679        0.0922128358
 C          0.5740564729       -1.0800452054        0.5739948406
 H         -2.8399399752       -1.5329409490       -0.4123274835
 H         -1.6421318768       -0.9234354750       -1.3852228373
 H         -3.2334630321       -0.5908796063       -1.7219772807
 H         -3.4621792768        0.7186066957        0.3082753365
 H         -2.2034054908        1.3609152410       -0.7228049025
 H         -1.7248822262       -0.5011974985        1.6594582041
 H         -1.4836676493        1.2244895074        1.6918967545
 H          0.1945658976        2.2236518028       -0.0277989682
 H          2.4877243109        1.9316633400       -0.8857308315
 H          3.5616563322       -0.2893299205       -0.8087296002
 H          2.3364146309       -2.2154332058        0.1293277764
 H          0.0452892142       -1.9210395604        0.9878743343
  21
  -25.829384690000001        7.4171263394673226E-002 !gc
 N         -2.5257229696       -0.6910627307        1.0583424324
 C         -2.4639814336        0.5004214324        0.1618961662
 C         -1.4821333736        0.3214484470       -0.9949192002
 C         -0.0637112927        0.1567325409       -0.5397659579
 C          0.6659267431        1.2576111459       -0.0810960045
 C          1.9743093171        1.1077218643        0.3653138415
 C          2.5714786253       -0.1469775602        0.3616126150
 C          1.8586170877       -1.2504538715       -0.0908002202
 C          0.5501800702       -1.0996834403       -0.5375067647
 H         -3.1814901124       -0.5455303977        1.8343445596
 H         -1.6017123083       -0.8899049607        1.4583782125
 H         -2.8292881319       -1.5213749464        0.5374307060
 H         -2.1786642875        1.3779505748        0.7527998869
 H         -3.4694516020        0.7114216042       -0.2219952821
 H         -1.5360801535        1.1756247020       -1.6791237681
 H         -1.7735965251       -0.5486053484       -1.5911141331
 H          0.2065711638        2.2310093776       -0.0802751009
 H          2.5260785469        1.9655596299        0.7133671876
 H          3.5854748185       -0.2637986459        0.7080278893
 H          2.3203056376       -2.2242021253       -0.0962457132
 H          0.0035837338       -1.9559492234       -0.8927833823
  21
  -25.829383839999998        7.4104578888093603E-002 !mtd11
 N         -2.5247973384       -0.6338584457        1.0928097031
 C         -2.4652638260        0.5098920018        0.1361167103
 C         -1.4821440894        0.2732287408       -1.0092693526
 C         -0.0642207299        0.1297034180       -0.5452216549
 C          0.6536342027        1.2457440825       -0.1052112147
 C          1.9622242742        1.1167676750        0.3470141256
 C          2.5718390912       -0.1317480386        0.3667781747
 C          1.8711504975       -1.2500819232       -0.0677225363
 C          0.5621669468       -1.1203425739       -0.5194836464
 H         -2.8262789244       -1.4905348934        0.6156562395
 H         -3.1812923376       -0.4495769727        1.8599178997
 H         -1.6004954424       -0.8099389915        1.5027157165
 H         -2.1824177940        1.4173521130        0.6811743868
 H         -3.4709322932        0.6987537218       -0.2587215085
 H         -1.5343142333        1.0924992218       -1.7350054798
 H         -1.7741960876       -0.6249931359       -1.5617797751
 H          0.1852186067        2.2146172245       -0.1238561710
 H          2.5045642436        1.9861306090        0.6809542583
 H          3.5864850205       -0.2320710108        0.7164837913
 H          2.3429290665       -2.2189256113       -0.0558018578
 H          0.0250820195       -1.9883130624       -0.8605785981
  21
  -25.829383230000001        7.4056759902828131E-002 !gc
 N         -2.5216223082       -0.6078030987        1.1083370700
 C         -2.4656310427        0.5133856166        0.1251932423
 C         -1.4827441179        0.2519443753       -1.0150034184
 C         -0.0647655178        0.1178781877       -0.5482234271
 C          0.6480266313        1.2404070395       -0.1166292596
 C          1.9563649337        1.1204885960        0.3387826287
 C          2.5711434016       -0.1252660384        0.3694078801
 C          1.8759089155       -1.2498624314       -0.0576325670
 C          0.5669996174       -1.1292402271       -0.5121504219
 H         -1.5964602555       -0.7725815120        1.5205378016
 H         -2.8222456497       -1.4760195023        0.6518528399
 H         -3.1771277499       -0.4067412522        1.8721492083
 H         -2.1846213402        1.4338570712        0.6489833652
 H         -3.4720060825        0.6908327413       -0.2731230430
 H         -1.5347314788        1.0553647322       -1.7582498124
 H         -1.7753027161       -0.6579600004       -1.5477974059
 H          0.1757409442        2.2071828603       -0.1440975041
 H          2.4943173443        1.9946398810        0.6672653989
 H          3.5854161328       -0.2185683048        0.7221244024
 H          2.3517977301       -2.2165689032       -0.0376465135
 H          0.0341148768       -2.0021676884       -0.8471519402
  21
  -25.829370940000000        7.3099871603307401E-002 !gc
 N         -2.5447705550       -0.6791527376       -0.9890737552
 C         -2.4706243036        0.5057705687       -0.0849116846
 C         -1.4521066100        0.3290396044        1.0401694903
 C         -0.0493347637        0.1583444081        0.5405224160
 C          0.6418414084        1.2393115497       -0.0145605956
 C          1.9353762794        1.0826939134       -0.5001302569
 C          2.5569388278       -0.1584888857       -0.4372880367
 C          1.8832783142       -1.2417928872        0.1131970925
 C          0.5891127358       -1.0846127563        0.5976684409
 H         -1.6288044954       -0.8676996879       -1.4114634979
 H         -3.2190433572       -0.5316482936       -1.7486415512
 H         -2.8300138479       -1.5161407253       -0.4685777150
 H         -3.4663581299        0.7024948294        0.3305134704
 H         -2.2136021049        1.3910224584       -0.6773920133
 H         -1.7268206755       -0.5382271687        1.6482132870
 H         -1.4815701658        1.1856541411        1.7227075665
 H          0.1646545886        2.2030284579       -0.0595239170
 H          2.4566488392        1.9250887848       -0.9243913877
 H          3.5600183686       -0.2799321263       -0.8127234530
 H          2.3645099998       -2.2046063109        0.1660618412
 H          0.0732391736       -1.9250621920        1.0286052448
  21
  -25.829360040000001        7.2261558000952950E-002 !gc
 N         -2.5381382708        0.0732347468       -1.2283125026
 C         -2.4856298632       -0.3746395375        0.1942635970
 C         -1.4504928457        0.3894119823        1.0182793660
 C         -0.0476335769        0.1877609053        0.5308382496
 C          0.6202882507        1.1924963928       -0.1763829849
 C          1.9138214356        0.9913402022       -0.6454534064
 C          2.5576781727       -0.2184666573       -0.4157760519
 C          1.9064111295       -1.2259474852        0.2851122772
 C          0.6128960470       -1.0238741642        0.7542880428
 H         -3.2288698701       -0.4624756484       -1.7660051505
 H         -1.6239754247       -0.0474034698       -1.6789445219
 H         -2.7903438193        1.0661878224       -1.2872524032
 H         -2.2595056523       -1.4464036866        0.2230759083
 H         -3.4818179702       -0.2665184821        0.6402448980
 H         -1.5037250709        0.0924511964        2.0716438083
 H         -1.6879935200        1.4574596663        1.0038999567
 H          0.1275412127        2.1331353834       -0.3513258028
 H          2.4178978432        1.7750055474       -1.1868976358
 H          3.5605022788       -0.3741621769       -0.7790934129
 H          2.4041075707       -2.1645117905        0.4661788334
 H          0.1119960919       -1.8042919785        1.3006703804
  21
  -25.829356189999999        7.1967759671235490E-002 !mtd4
 N         -2.5361881311        0.0740004877       -1.2287285319
 C         -2.4862929514       -0.3734116338        0.1940727492
 C         -1.4505392007        0.3887119961        1.0190841075
 C         -0.0478402706        0.1871577095        0.5311888063
 C          0.6193807314        1.1918010042       -0.1768126437
 C          1.9128537498        0.9910157603       -0.6461858596
 C          2.5573338877       -0.2183766460       -0.4160845628
 C          1.9067148572       -1.2258193792        0.2854703619
 C          0.6132452837       -1.0241139842        0.7549536877
 H         -2.7825313930        1.0682059527       -1.2880387844
 H         -3.2301912040       -0.4578832471       -1.7661325316
 H         -1.6227226243       -0.0521621596       -1.6795230342
 H         -2.2626150238       -1.4456687307        0.2235087856
 H         -3.4827460669       -0.2628472866        0.6388678720
 H         -1.5038599335        0.0901608913        2.0719933762
 H         -1.6873942342        1.4569360286        1.0064201661
 H          0.1260976289        2.1320828707       -0.3521654642
 H          2.4163958991        1.7746618556       -1.1881559746
 H          3.5601249885       -0.3737816404       -0.7796236645
 H          2.4049039202       -2.1640661720        0.4668228612
 H          0.1128363206       -1.8044985328        1.3018351208
  21
  -25.829354370000001        7.1829289295354135E-002 !mtd10
 N         -2.5376917400        0.0757058409       -1.2284334165
 C         -2.4864094684       -0.3736650325        0.1937035392
 C         -1.4503714600        0.3877601128        1.0189986785
 C         -0.0477411026        0.1864772069        0.5307954768
 C          0.6190345411        1.1911269445       -0.1776100460
 C          1.9127593989        0.9908791150       -0.6465238055
 C          2.5579236347       -0.2179904732       -0.4155881087
 C          1.9076819535       -1.2255011649        0.2862172298
 C          0.6139520323       -1.0243429282        0.7552196433
 H         -1.6250896442       -0.0506678838       -1.6805387165
 H         -2.7832627859        1.0702708570       -1.2860959701
 H         -3.2329951652       -0.4548492351       -1.7656663135
 H         -2.2623016614       -1.4458772138        0.2214999862
 H         -3.4825502453       -0.2640938777        0.6394467475
 H         -1.5035206604        0.0884700426        2.0717089980
 H         -1.6871353366        1.4560138827        1.0071798466
 H          0.1252567745        2.1310451825       -0.3535152825
 H          2.4160124893        1.7745812713       -1.1886810930
 H          3.5609784830       -0.3729134680       -0.7786059006
 H          2.4064081033       -2.1633348663        0.4682309368
 H          0.1138762189       -1.8047361153        1.3023933535
  21
  -25.829344549999998        7.1086741912691251E-002 !mtd1
 N         -2.4865478118        0.7531777951        1.0875411108
 C         -2.4880645194       -0.3929915371        0.1318413175
 C         -1.4920699224       -0.2117345323       -1.0125534518
 C         -0.0700300858       -0.1306530511       -0.5459901195
 C          0.6181328254        1.0868581622       -0.5420252314
 C          1.9299800401        1.1601444049       -0.0865516507
 C          2.5725517824        0.0169378847        0.3728728005
 C          1.9016783747       -1.1997509377        0.3741997419
 C          0.5897082955       -1.2722793511       -0.0815692983
 H         -2.7386846503        1.6247851707        0.6089186299
 H         -1.5554523034        0.8782937619        1.5007002604
 H         -3.1547817798        0.6059535543        1.8525334875
 H         -3.5020117025       -0.5271633819       -0.2640559672
 H         -2.2561605013       -1.3139189380        0.6785659431
 H         -1.7406497402        0.6948448308       -1.5726740284
 H         -1.5807392212       -1.0332339754       -1.7321450467
 H          0.1266563228        1.9734147282       -0.9034852986
 H          2.4492610179        2.1044717831       -0.0904714261
 H          3.5895057676        0.0737537052        0.7257244086
 H          2.3985608485       -2.0881956412        0.7279991476
 H          0.0733430452       -2.2166684340       -0.0833154774
  21
  -25.829341990000000        7.0894430038404732E-002 !md2
 N         -2.5424650626       -0.6913737694       -0.9819984953
 C         -2.4714038450        0.5015742611       -0.0882547513
 C         -1.4520494069        0.3383140181        1.0380774975
 C         -0.0492648866        0.1639480582        0.5399592251
 C          0.6478470749        1.2446472231       -0.0082006292
 C          1.9410635399        1.0842815285       -0.4934626480
 C          2.5563654355       -0.1603473584       -0.4375256128
 C          1.8764928768       -1.2435440254        0.1055162121
 C          0.5827358333       -1.0825624896        0.5898697704
 H         -3.2269117013       -0.5574256753       -1.7348521633
 H         -2.8131778557       -1.5264920801       -0.4509970208
 H         -1.6293135002       -0.8745083986       -1.4134299913
 H         -3.4675993083        0.6979866725        0.3262658499
 H         -2.2180998885        1.3825496477       -0.6886666003
 H         -1.7255234494       -0.5224626832        1.6559338086
 H         -1.4823343003        1.2025207645        1.7109330564
 H          0.1754448622        2.2109214301       -0.0482832589
 H          2.4666236649        1.9262463167       -0.9132564935
 H          3.5590863622       -0.2846631967       -0.8130515847
 H          2.3525223808       -2.2092487698        0.1524256769
 H          0.0622207984       -1.9228315445        1.0155736094
  21
  -25.829340930000001        7.0814953293452415E-002 !gc
 N         -2.4927995226        0.7078141255        1.1130939500
 C         -2.4892654192       -0.3996078822        0.1128032208
 C         -1.4903198586       -0.1712684741       -1.0205878410
 C         -0.0691875851       -0.1082390539       -0.5482563414
 C          0.6252213439        1.1052926222       -0.5136827870
 C          1.9374605659        1.1603964899       -0.0567114017
 C          2.5741738972        0.0027690228        0.3738772249
 C          1.8970194567       -1.2100747932        0.3448298922
 C          0.5848518884       -1.2644875493       -0.1128678805
 H         -1.5632044460        0.8181702892        1.5335009063
 H         -3.1628820786        0.5292094569        1.8695846489
 H         -2.7452466619        1.5973342950        0.6684758458
 H         -3.5017713160       -0.5197646132       -0.2912160737
 H         -2.2575514933       -1.3411271406        0.6233138574
 H         -1.7385411926        0.7571703322       -1.5438608023
 H         -1.5765127379       -0.9628566927       -1.7732488994
 H          0.1384757118        2.0031715782       -0.8529611716
 H          2.4618309586        2.1017439609       -0.0376543957
 H          3.5915472961        0.0453168648        0.7275346909
 H          2.3892923236       -2.1096429734        0.6762584378
 H          0.0641510006       -2.2061222032       -0.1392602437
  21
  -25.829336229999999        7.0463628391598046E-002 !md2
 N         -2.4922148038        0.8494748195        1.0164213995
 C         -2.4872555146       -0.3798958332        0.1703953078
 C         -1.4923606490       -0.3000035945       -0.9863597864
 C         -0.0698899862       -0.1780413120       -0.5305323895
 C          0.6052707929        1.0447529017       -0.5983443152
 C          1.9185607701        1.1567647413       -0.1551128307
 C          2.5751640473        0.0477936459        0.3644886535
 C          1.9166011617       -1.1733287368        0.4391081615
 C          0.6032201391       -1.2846181171       -0.0045264222
 H         -3.1664879647        0.7728943937        1.7862634757
 H         -2.7406698802        1.6736813432        0.4580310255
 H         -1.5641225639        1.0120616942        1.4238265240
 H         -3.5003052255       -0.5551481021       -0.2114873427
 H         -2.2507887608       -1.2453198813        0.7996876836
 H         -1.7413152635        0.5533363802       -1.6245261603
 H         -1.5817810667       -1.1818789409       -1.6304503340
 H          0.1023001758        1.9046802100       -1.0054540946
 H          2.4280710693        2.1044470263       -0.2157333936
 H          3.5935756875        0.1343714934        0.7069086810
 H          2.4242409021       -2.0353974148        0.8397674956
 H          0.0964132997       -2.2325699103        0.0504891461
  21
  -25.828211759999999        2.1438498775422608E-002 !mtd13
 N         -3.7127807730        0.0290918042        0.1441666234
 C         -2.2617246329        0.1416628626        0.4796585717
 C         -1.3526421387       -0.1822833409       -0.7013958893
 C          0.1040128838       -0.0934245528       -0.3572264614
 C          0.7914522972        1.1187653789       -0.4711162580
 C          2.1338642358        1.2097270569       -0.1199583439
 C          2.8063353560        0.0906210284        0.3559583322
 C          2.1337213160       -1.1185904395        0.4823627653
 C          0.7910883279       -1.2089754020        0.1311335215
 H         -3.9402727417       -0.9219067781       -0.1626829278
 H         -3.9587232988        0.6725249641       -0.6145616750
 H         -4.3013728449        0.2516540558        0.9535159592
 H         -2.0284102765       -0.5262636056        1.3165002677
 H         -2.0483348599        1.1537318165        0.8420495229
 H         -1.5709977948        0.4927988358       -1.5345177600
 H         -1.5759715427       -1.1854808875       -1.0769344207
 H          0.2713587233        1.9876804135       -0.8357231063
 H          2.6529298113        2.1492696554       -0.2159636017
 H          3.8469737957        0.1608964513        0.6278989624
 H          2.6526193280       -1.9870197565        0.8537233031
 H          0.2709701584       -2.1457359455        0.2335522290
  21
  -25.828198230000002        2.1133742583684431E-002 !gc
 N         -3.7123389162        0.0363442309        0.1445886125
 C         -2.2604414061        0.1481534247        0.4772881320
 C         -1.3526672711       -0.1919955778       -0.7001214788
 C          0.1040410925       -0.0989971244       -0.3572970642
 C          0.7887411252        1.1143039887       -0.4757981698
 C          2.1308005444        1.2096268826       -0.1244591361
 C          2.8057348387        0.0939204725        0.3559589967
 C          2.1357618515       -1.1162462385        0.4870810453
 C          0.7934012548       -1.2109788699        0.1359587803
 H         -4.2991563128        0.2722661951        0.9512891241
 H         -3.9431307072       -0.9182817997       -0.1482326677
 H         -3.9570292334        0.6695230843       -0.6233558312
 H         -2.0284503571       -0.5105091165        1.3218383051
 H         -2.0429568311        1.1636176717        0.8273716951
 H         -1.5709380072        0.4722076324       -1.5419742835
 H         -1.5767762458       -1.1999052235       -1.0622567397
 H          0.2667406227        1.9806729605       -0.8438449486
 H          2.6476591240        2.1500230467       -0.2235806521
 H          3.8461570674        0.1675962122        0.6278906929
 H          2.6563603970       -1.9819419485        0.8624037715
 H          0.2749147157       -2.1481260331        0.2430385888
  21
  -25.828195510000000        2.1073001002251308E-002 !gc
 N         -3.7120509597        0.0331634379        0.1460004866
 C         -2.2600251785        0.1276518082        0.4831076556
 C         -1.3527213218       -0.1762775710       -0.7045628876
 C          0.1040590440       -0.0903880062       -0.3602587381
 C          0.7933052963        1.1211124940       -0.4709528389
 C          2.1352466661        1.2095125895       -0.1173869599
 C          2.8054394597        0.0887321731        0.3578004395
 C          2.1309111796       -1.1197344422        0.4811715629
 C          0.7887483061       -1.2076238541        0.1274920518
 H         -3.9528081900        0.6908841122       -0.6019707440
 H         -4.2987533385        0.2465567113        0.9590871105
 H         -3.9469650656       -0.9107073396       -0.1770197960
 H         -2.0314105333       -0.5599648029        1.3051789961
 H         -2.0387037725        1.1299183617        0.8672129632
 H         -1.5732012861        0.5120839616       -1.5261707346
 H         -1.5749332588       -1.1735554278       -1.0962155101
 H          0.2750076410        1.9915512537       -0.8346155613
 H          2.6558009031        2.1484412494       -0.2109727162
 H          3.8457337548        0.1569925614        0.6316193000
 H          2.6478172732       -1.9893532241        0.8525124992
 H          0.2666773684       -2.1434481295        0.2285474135
  21
  -25.828173020000001        2.0577409457701094E-002 !gc
 N         -3.6994028617       -0.0663506759       -0.3364448278
 C         -2.2311174951       -0.1535501281       -0.5969766967
 C         -1.3886123077        0.1511807965        0.6372929629
 C          0.0846186605        0.0862414613        0.3661723206
 C          0.7804891640        1.2187647590       -0.0677712299
 C          2.1396300526        1.1510126064       -0.3537368249
 C          2.8209024662       -0.0522743181       -0.2158190304
 C          2.1403755022       -1.1878504572        0.2060781903
 C          0.7810574863       -1.1195512803        0.4921295952
 H         -4.2411453306       -0.2749046773       -1.1813648300
 H         -3.9544947659        0.8743148036       -0.0195548989
 H         -3.9778184400       -0.7310366258        0.3924879018
 H         -1.9627369962        0.5375974099       -1.4039514380
 H         -1.9851674058       -1.1535466598       -0.9718712677
 H         -1.6412036394       -0.5464840390        1.4416092338
 H         -1.6428380532        1.1424333772        1.0246253802
 H          0.2536241758        2.1506215282       -0.1800840684
 H          2.6647992637        2.0321694524       -0.6840413536
 H          3.8744566284       -0.1048942369       -0.4373781598
 H          2.6660934130       -2.1227208068        0.3106643921
 H          0.2548972045       -2.0013478900        0.8148311923
  21
  -25.828171980000000        2.0554776009398659E-002 !md3
 N         -3.6993950038       -0.0708382616       -0.3361711274
 C         -2.2308737560       -0.1576933477       -0.5956772775
 C         -1.3886286376        0.1560858403        0.6364868471
 C          0.0846418187        0.0894447864        0.3659271718
 C          0.7830463999        1.2215046042       -0.0651885916
 C          2.1420926466        1.1513130813       -0.3511328170
 C          2.8208105861       -0.0537135783       -0.2158370675
 C          2.1377085085       -1.1887752979        0.2032589767
 C          0.7785398898       -1.1180620805        0.4893408409
 H         -3.9767147601       -0.7280372954        0.3997164671
 H         -4.2405955382       -0.2895764173       -1.1790211125
 H         -3.9567131676        0.8727988645       -0.0296748283
 H         -1.9630929830        0.5285008901       -1.4070559722
 H         -1.9835895007       -1.1598056230       -0.9639922405
 H         -1.6406486925       -0.5362811494        1.4455448913
 H         -1.6431023486        1.1498612464        1.0170531292
 H          0.2581646982        2.1546996422       -0.1757408947
 H          2.6689825784        2.0318886862       -0.6802134715
 H          3.8741620964       -0.1081302429       -0.4378814939
 H          2.6611910514       -2.1252017926        0.3051755548
 H          0.2503857926       -1.9992086802        0.8105370177
  21
  -25.828156870000001        2.0228732588160943E-002 !md8
 N         -3.7001586887       -0.0646654806       -0.3356260489
 C         -2.2318359321       -0.1237941050       -0.6040249937
 C         -1.3885302503        0.1329777546        0.6405944203
 C          0.0846434683        0.0757085086        0.3674467479
 C          0.7722163119        1.2105482078       -0.0734255908
 C          2.1315015775        1.1507636605       -0.3604497642
 C          2.8214114918       -0.0468324508       -0.2160551688
 C          2.1493004303       -1.1847084285        0.2130769928
 C          0.7896852259       -1.1244974269        0.4995191091
 H         -3.9633161940        0.8551345391        0.0319134562
 H         -3.9700924436       -0.7702614613        0.3569736776
 H         -4.2423374568       -0.2332493242       -1.1893835924
 H         -1.9734285277        0.6060669117       -1.3795314172
 H         -1.9766575261       -1.1031097765       -1.0246487211
 H         -1.6427201613       -0.5942020327        1.4177445561
 H         -1.6405134308        1.1093579575        1.0654651082
 H          0.2383592125        2.1377663517       -0.1909203729
 H          2.6501472722        2.0334297028       -0.6969731050
 H          3.8750914640       -0.0934283928       -0.4383673838
 H          2.6818570174       -2.1150734153        0.3231375351
 H          0.2700821603       -2.0082723915        0.8273770909
  21
  -25.826134979999999        2.3810711061666946E-003 !gc
 N         -3.7543112685        0.1981628326       -0.1994718177
 C         -2.3071944513        0.5463098294       -0.3348835049
 C         -1.3869933026       -0.5205954585        0.2532433618
 C          0.0892192942       -0.2544661205        0.1388833679
 C          0.6133262048        0.9181952717       -0.4177193070
 C          1.9873721763        1.1188538821       -0.4970873482
 C          2.8628709705        0.1515300845       -0.0201736058
 C          2.3605926926       -1.0173373398        0.5367659244
 C          0.9865785007       -1.2164898730        0.6150100734
 H         -4.3528169499        0.9280502222       -0.5994479908
 H         -4.0083811772        0.0843884506        0.7869776411
 H         -3.9615064321       -0.6820718054       -0.6821971216
 H         -2.1225562521        1.5078026711        0.1569117127
 H         -2.0717429818        0.6947617216       -1.3947237810
 H         -1.6033157258       -1.4799678781       -0.2268654607
 H         -1.6328205953       -0.6612389116        1.3103175670
 H         -0.0493245302        1.6784605057       -0.7909189210
 H          2.3741398989        2.0271145266       -0.9295600844
 H          3.9276785008        0.3076766730       -0.0817272080
 H          3.0360636722       -1.7701407357        0.9088617041
 H          0.6014841778       -2.1234718724        1.0487316439
  21
  -25.826134320000001        2.3794087262233605E-003 !gc
 N         -3.7542704156        0.1976758968       -0.2003975043
 C         -2.3071859002        0.5461316649       -0.3352109814
 C         -1.3870160408       -0.5199973128        0.2543831588
 C          0.0892092224       -0.2541849761        0.1394457888
 C          0.6133241532        0.9184073884       -0.4173047381
 C          1.9873781561        1.1187870067       -0.4972200647
 C          2.8628717695        0.1512839911       -0.0206592897
 C          2.3605824032       -1.0174683973        0.5365116543
 C          0.9865600918       -1.2163505655        0.6152911838
 H         -4.0089170265        0.0845582984        0.7859060891
 H         -3.9608480898       -0.6828908081       -0.6825639008
 H         -4.3528705145        0.9271871906       -0.6013629007
 H         -2.1231127210        1.5081278673        0.1558121178
 H         -2.0711492066        0.6936949652       -1.3950470521
 H         -1.6034743887       -1.4800205287       -0.2243608408
 H         -1.6327389893       -0.6591476339        1.3116792978
 H         -0.0493324516        1.6788379814       -0.7901540691
 H          2.3741593715        2.0269645175       -0.9298539774
 H          3.9276869944        0.3072058363       -0.0826565752
 H          3.0360502020       -1.7703925849        0.9083689522
 H          0.6014554479       -2.1232463158        1.0491833276
  21
  -25.824510660000001        4.2686109895310304E-004 !mtd10
 N         -3.0697861894       -1.1310101734        0.0937393387
 C         -2.4360639047        0.0753254285       -0.5215648379
 C         -1.4369227574        0.7761366619        0.4144955812
 C          0.0044893061        0.4190728860        0.1813802364
 C          1.0003878262        1.3891341999        0.3423633259
 C          2.3421199347        1.0740416894        0.1570517714
 C          2.7126550914       -0.2202950544       -0.1857490401
 C          1.7382367480       -1.1982106425       -0.3394123174
 C          0.3975850594       -0.8800086881       -0.1532216086
 H         -3.6766936985       -1.6178476727       -0.5752719139
 H         -3.6435312342       -0.8632886382        0.9009275061
 H         -2.3675025894       -1.8003972638        0.4271753317
 H         -3.2356601006        0.7675451332       -0.8148607680
 H         -1.9360884394       -0.1995505511       -1.4575583203
 H         -1.6922146343        0.5517207605        1.4546008790
 H         -1.5409649963        1.8628948784        0.3189061811
 H          0.7206877863        2.3918868393        0.6162570793
 H          3.0956957214        1.8344101691        0.2813497535
 H          3.7524814103       -0.4652573423       -0.3295572894
 H          2.0218740868       -2.2041994427       -0.6021369069
 H         -0.3479898377       -1.6433963153       -0.2753379339
  21
  -25.824476520000001        4.1171521854631548E-004 !gc
 N         -3.0725314101        0.6758678209       -0.9368600376
 C         -2.4080511171        0.4900774759        0.3894401548
 C         -1.4593585928       -0.7204484822        0.4258225892
 C         -0.0054692952       -0.3860212808        0.2429825237
 C          0.4173643593        0.5658799930       -0.6892233176
 C          1.7675242848        0.8454244930       -0.8669676341
 C          2.7218521845        0.1694744493       -0.1171260875
 C          2.3213752641       -0.7870516608        0.8072078602
 C          0.9697977616       -1.0644701559        0.9826778791
 H         -3.6554272728        1.5202100493       -0.9485151057
 H         -3.6758715590       -0.1253395554       -1.1523169486
 H         -2.3877216212        0.7565173729       -1.6963736195
 H         -3.1911630984        0.3854843347        1.1512178561
 H         -1.8591886758        1.3984838716        0.6637308317
 H         -1.7553825206       -1.4402023825       -0.3434460219
 H         -1.5735893769       -1.2514385687        1.3776498194
 H         -0.3128315954        1.0944616135       -1.2731061130
 H          2.0740631938        1.5860886407       -1.5873872042
 H          3.7691708678        0.3847372910       -0.2539003292
 H          3.0591986807       -1.3165428159        1.3874936446
 H          0.6666278156       -1.8130742954        1.6943270583
  21
  -25.824465000000000        4.0672671120061202E-004 !gc
 N         -3.0847276173       -1.1233795561        0.0618284196
 C         -2.4308011997        0.0877281447       -0.5218873158
 C         -1.4350070523        0.7591881181        0.4394821486
 C          0.0066942017        0.4118224565        0.1949642267
 C          0.9978434656        1.3901688624        0.3334738240
 C          2.3394936359        1.0809568072        0.1379415297
 C          2.7144962134       -0.2151234471       -0.1933020862
 C          1.7446798613       -1.2007428734       -0.3254970067
 C          0.4040922552       -0.8885204261       -0.1290182442
 H         -3.6579814325       -0.8668960800        0.8729589012
 H         -2.3936289027       -1.8110753865        0.3806836120
 H         -3.6958492417       -1.5848924598       -0.6213892678
 H         -3.2190092610        0.7943107684       -0.8117866784
 H         -1.9222424232       -0.1752886759       -1.4567074340
 H         -1.6904958360        0.4990163901        1.4712070718
 H         -1.5414977301        1.8483196206        0.3812521867
 H          0.7147806777        2.3944892673        0.5979399010
 H          3.0896358758        1.8472167657        0.2456740449
 H          3.7543041544       -0.4555227953       -0.3447017138
 H          2.0317376002       -2.2079728559       -0.5795801254
 H         -0.3384891313       -1.6574080335       -0.2339677676
