  29
        -29.82524699
 N          3.6079477614       -1.2560451010        0.5278054953
 C          3.2648834579       -0.4467512584       -0.6759500235
 C          2.7430897136        0.9453267702       -0.3324938824
 C          1.4277636836        0.9526199425        0.4518525574
 C          0.2402582201        0.3699328077       -0.3173172089
 C         -1.0816673875        0.4704401054        0.4474258555
 C         -2.2702008134       -0.1161883859       -0.3170385209
 C         -3.5933474176       -0.0112574003        0.4451263381
 C         -4.7706316589       -0.6012937443       -0.3165889725
 H          4.0095308281       -2.1709090155        0.2707063940
 H          2.7808243495       -1.4387154785        1.1144053569
 H          4.3024507631       -0.7696757256        1.1137652054
 H          2.5292940364       -0.9882177256       -1.2812253728
 H          4.1572773758       -0.3655707861       -1.3102729015
 H          2.6131244565        1.5292769185       -1.2520484598
 H          3.5142068018        1.4766344719        0.2389279745
 H          1.1841077129        1.9799695945        0.7504265987
 H          1.5544621876        0.4094937401        1.3946876317
 H          0.4353193310       -0.6787012877       -0.5667775849
 H          0.1433678095        0.8812342849       -1.2819583969
 H         -1.2852277427        1.5195994438        0.6908654188
 H         -0.9840985911       -0.0332412012        1.4159576318
 H         -2.0689490243       -1.1663524896       -0.5576990888
 H         -2.3660181670        0.3855341569       -1.2868757633
 H         -3.7914234645        1.0414098932        0.6829469405
 H         -3.4908292711       -0.5077803685        1.4181628696
 H         -4.6135956311       -1.6600449399       -0.5302361754
 H         -4.9162484761       -0.0968896656       -1.2733774464
 H         -5.7045760858       -0.5159100994        0.2434259727
