  19
        -27.53139449
 N         -1.1976312731       -0.0297063890        0.9012089223
 C         -0.5119988015       -0.0031877908       -0.3834059867
 C          0.9789714483        0.0005024878       -0.2464435940
 C          1.6743763045        1.1955251960       -0.1467455260
 C          3.0449840301        1.1991824161        0.0184624932
 C          3.7347579244        0.0063568352        0.0930323714
 C          3.0515460359       -1.1895741408        0.0057000377
 C          1.6810679533       -1.1917648527       -0.1595969971
 Cl        -4.3711150761        0.0075110661       -0.1129923720
 H         -0.8954670553        0.7657872052        1.4528955438
 H         -3.0979547121       -0.0076643086        0.3001788504
 H         -0.8964425571       -0.8468763771        1.4215955706
 H         -0.8373195043        0.8779252917       -0.9486286353
 H         -0.8300329761       -0.8658849907       -0.9811884692
 H          1.1323420256        2.1250954763       -0.1967635527
 H          3.5761749303        2.1345219441        0.0912182507
 H          4.8051013203        0.0086391506        0.2222717194
 H          3.5879482730       -2.1225923506        0.0685540060
 H          1.1442654466       -2.1233915602       -0.2197642570
