  19
        -27.53139449
 N         -1.1976312731       -0.0297063890        0.9012089223
 C         -0.5119988015       -0.0031877908       -0.3834059867
 C          0.9789714483        0.0005024878       -0.2464435940
 C          1.6743763045        1.1955251960       -0.1467455260
 C          3.0449840301        1.1991824161        0.0184624932
 C          3.7347579244        0.0063568352        0.0930323714
 C          3.0515460359       -1.1895741408        0.0057000377
 C          1.6810679533       -1.1917648527       -0.1595969971
 Cl        -4.3711150761        0.0075110661       -0.1129923720
 H         -0.8954670553        0.7657872052        1.4528955438
 H         -3.0979547121       -0.0076643086        0.3001788504
 H         -0.8964425571       -0.8468763771        1.4215955706
 H         -0.8373195043        0.8779252917       -0.9486286353
 H         -0.8300329761       -0.8658849907       -0.9811884692
 H          1.1323420256        2.1250954763       -0.1967635527
 H          3.5761749303        2.1345219441        0.0912182507
 H          4.8051013203        0.0086391506        0.2222717194
 H          3.5879482730       -2.1225923506        0.0685540060
 H          1.1442654466       -2.1233915602       -0.2197642570
  19
        -27.53012716
 N         -1.2587838262       -0.9578928087        0.1267883760
 C         -0.5125503957        0.2900230797        0.0248901916
 C          0.9814767238        0.1461968565       -0.0067184786
 C          1.7676698744        1.2662000787       -0.2361384687
 C          3.1445183219        1.1714455525       -0.2653796519
 C          3.7568896540       -0.0479867043       -0.0633419384
 C          2.9888244053       -1.1703558934        0.1685180311
 C          1.6117986834       -1.0722742308        0.1972062373
 Cl        -4.3727200412        0.2219022349        0.0063083979
 H         -0.9938728096       -1.5743004595       -0.6335516751
 H         -3.1242485194       -0.2578620255        0.0552899745
 H         -1.0106271528       -1.4394211873        0.9845147245
 H         -0.7948493042        0.9396624002        0.8616454788
 H         -0.8412774318        0.8190395012       -0.8780149631
 H          1.2888317703        2.2186350102       -0.3919541743
 H          3.7412933251        2.0510198232       -0.4458147525
 H          4.8321246595       -0.1236365713       -0.0860672186
 H          3.4643525906       -2.1247354255        0.3276132534
 H          1.0211669421       -1.9525754231        0.3789965210
  19
        -27.52982283
 N         -1.7518999177        1.2262609082        1.0991586423
 C         -0.6555858808        0.5653722189        1.7989862092
 C          0.5216452196        0.3148845393        0.9074788742
 C          1.4423492870        1.3214798509        0.6625504407
 C          2.5079083265        1.1077494576       -0.1888420472
 C          2.6608804451       -0.1146777680       -0.8104279760
 C          1.7453487033       -1.1215236294       -0.5814307764
 C          0.6809919535       -0.9065611345        0.2706203564
 Cl        -2.3933573412       -1.0036149128       -1.2927274607
 H         -2.5044819999        1.4521328607        1.7418391343
 H         -2.1320503928       -0.1062251341       -0.3347294184
 H         -1.4269734763        2.1088337157        0.7182160359
 H         -1.0138942049       -0.3877735284        2.2045064859
 H         -0.3373548393        1.1600339112        2.6648547078
 H          1.3156165153        2.2775211056        1.1424747687
 H          3.2192381122        1.8973458308       -0.3701683652
 H          3.4920573823       -0.2818261267       -1.4764211544
 H          1.8588028683       -2.0752191541       -1.0710891229
 H         -0.0405216002       -1.6874720901        0.4414079408
  19
        -27.52981423
 N         -1.7335938911       -1.3120543873        0.9869947776
 C         -0.6558583422       -0.6739198907        1.7351369792
 C          0.5320640616       -0.3683054417        0.8756254847
 C          0.6761542381        0.8767703732        0.2829056782
 C          1.7520813160        1.1434531569       -0.5397168958
 C          2.6940879951        0.1650964383       -0.7834395850
 C          2.5562842538       -1.0809047511       -0.2063128761
 C          1.4795272867       -1.3462244227        0.6157263944
 Cl        -2.4487884808        1.0878262118       -1.2111699597
 H         -1.3879023040       -2.1627204773        0.5554792900
 H         -2.1580315198        0.1208802414       -0.3326491192
 H         -2.4861101866       -1.5919929561        1.6082630532
 H         -0.3443055969       -1.3057991157        2.5761070182
 H         -1.0317458163        0.2550481823        2.1802554933
 H         -0.0662081785        1.6357796144        0.4647092247
 H          1.8539301989        2.1155236527       -0.9947099119
 H          3.5342427666        0.3725388206       -1.4264371617
 H          3.2883136556       -1.8484022161       -0.3995055503
 H          1.3648971528       -2.3201063329        1.0608653756
  19
        -27.52842266
 N         -1.6824677339        1.3550437377        0.7672083354
 C         -0.7684269321        1.6212533665       -0.3400123951
 C          0.5347148195        0.8912024362       -0.2105082397
 C          1.7258405946        1.5845963700       -0.0545112564
 C          2.9224278127        0.9077681304        0.0721037167
 C          2.9421636904       -0.4716488606        0.0467176779
 C          1.7630804854       -1.1725216168       -0.1025828399
 C          0.5683091875       -0.4940722760       -0.2283250453
 Cl        -2.7034349695       -1.7028207304       -0.0501092492
 H         -1.2022767546        1.5233989054        1.6442549256
 H         -2.3241959366       -0.4659615133        0.2947100827
 H         -2.4703642225        1.9955142593        0.7457538330
 H         -0.5780304984        2.6982525804       -0.4249603262
 H         -1.2521844582        1.3271681639       -1.2791298575
 H          1.7101353094        2.6614285922       -0.0319551832
 H          3.8420943780        1.4576002183        0.1913742472
 H          3.8763483841       -1.0007178066        0.1455535665
 H          1.7744606552       -2.2504159371       -0.1179714431
 H         -0.3530523580       -1.0408708099       -0.3293769410
  19
        -27.52477085
 N         -2.0911363515        0.0120799630       -1.7444905852
 C         -0.7431988461       -0.0121829495       -2.2887364512
 C          0.3130351980       -0.0045557617       -1.2274464266
 C          0.7833855147        1.1927863598       -0.7113104239
 C          1.7213339541        1.2010575280        0.3014690826
 C          2.1948845922        0.0106194110        0.8137418202
 C          1.7279368738       -1.1875451700        0.3130966246
 C          0.7899643212       -1.1944277645       -0.6994833295
 Cl        -1.5222493596       -0.0074408908        2.0503643297
 H         -2.2356667197       -0.7831270669       -1.1331555629
 H         -0.5214670335       -0.0069799873        1.1906279366
 H         -2.2202571462        0.8379759739       -1.1722579539
 H         -0.6084633646        0.8462681387       -2.9568105676
 H         -0.6277929214       -0.8974492184       -2.9254692702
 H          0.4068608147        2.1207955363       -1.1086488029
 H          2.0844927416        2.1383348144        0.6917058721
 H          2.9293693913        0.0164965113        1.6031332938
 H          2.0962904680       -2.1188593373        0.7124938301
 H          0.4184970792       -2.1281370027       -1.0872479992
  19
        -27.52362271
 N         -0.6333792904       -0.0731536053        3.4075085242
 C         -1.1361776988       -0.0301657508        2.0443252781
 C         -0.0431664651       -0.0128461445        1.0209410537
 C          0.4924277895        1.1879804122        0.5822040478
 C          1.5232598540        1.2037589944       -0.3357790559
 C          2.0350296222        0.0173220368       -0.8198350733
 C          1.5175628534       -1.1844198793       -0.3812245151
 C          0.4867881697       -1.1987478503        0.5366530115
 Cl        -1.4764418269        0.0389983635       -2.4795607925
 H         -0.0368112764        0.7271186079        3.5830342089
 H         -0.5899694872        0.0184287597       -1.5026011448
 H         -0.0543859330       -0.8945155829        3.5358279118
 H         -1.7757768370        0.8517944360        1.9236468357
 H         -1.7936914779       -0.8912908502        1.8748213328
 H          0.0985403529        2.1126310181        0.9703857280
 H          1.9320305860        2.1436790923       -0.6706220470
 H          2.8423892264        0.0290277989       -1.5344588420
 H          1.9219705643       -2.1127529790       -0.7516395890
 H          0.0884290861       -2.1352879761        0.8892780323
  19
        -27.52361394
 N         -1.8764057378       -0.5650000469        1.7017970140
 C         -0.6455726652        0.0726364590        2.1509204831
 C          0.4297770865        0.0444750396        1.1077767438
 C          0.8443049556        1.2129157707        0.4845929517
 C          1.7595294351        1.1720968696       -0.5478436496
 C          2.2757294514       -0.0374555358       -0.9651910159
 C          1.8785948132       -1.2051545221       -0.3462465579
 C          0.9599527051       -1.1635111439        0.6831422413
 Cl        -1.8786662306        0.2143812068       -1.6914523254
 H         -1.7587015645       -1.5707396511        1.6574623973
 H         -0.6817412742        0.3556827150       -1.1487139322
 H         -2.0652084960       -0.2698580927        0.7492812779
 H         -0.2919501257       -0.4056311441        3.0715981990
 H         -0.8699832297        1.1099384833        2.4264164971
 H          0.4347295056        2.1565542322        0.8056601121
 H          2.0743540155        2.0862364857       -1.0256641469
 H          2.9925866220       -0.0698264517       -1.7699473441
 H          2.2830784429       -2.1509078137       -0.6691673442
 H          0.6373665810       -2.0746286850        1.1580063554
  19
        -27.52345420
 N         -1.1276326296        0.0014361865       -3.0160695035
 C         -1.3505895097       -0.0414876595       -1.5802782450
 C         -0.0774850065       -0.0217806233       -0.7921746802
 C          0.5211444915        1.1809484330       -0.4539087889
 C          1.7095181056        1.2015368084        0.2475907189
 C          2.3161774948        0.0174500179        0.6126947715
 C          1.7347053089       -1.1863956701        0.2713160719
 C          0.5466070351       -1.2050011721       -0.4304710957
 Cl        -1.3967303214        0.0188836765        2.0626820282
 H         -0.5535747088       -0.7839329904       -3.3002620682
 H         -2.2318242817        0.0251443668        3.0849629788
 H         -0.6076513693        0.8363403954       -3.2587382119
 H         -1.9304760172       -0.9378135478       -1.3317203212
 H         -1.9839381922        0.8044251914       -1.2872247150
 H          0.0472907589        2.1037277121       -0.7443760679
 H          2.1636836798        2.1434144983        0.5101710004
 H          3.2437662453        0.0327117231        1.1619917244
 H          2.2085097631       -2.1129469455        0.5528250276
 H          0.0930246655       -2.1430565163       -0.7025740046
