  19
  -27.531394490000000       0.23661152245831499      !mtd1
 N         -1.1976312731       -0.0297063890        0.9012089223
 C         -0.5119988015       -0.0031877908       -0.3834059867
 C          0.9789714483        0.0005024878       -0.2464435940
 C          1.6743763045        1.1955251960       -0.1467455260
 C          3.0449840301        1.1991824161        0.0184624932
 C          3.7347579244        0.0063568352        0.0930323714
 C          3.0515460359       -1.1895741408        0.0057000377
 C          1.6810679533       -1.1917648527       -0.1595969971
 Cl        -4.3711150761        0.0075110661       -0.1129923720
 H         -0.8954670553        0.7657872052        1.4528955438
 H         -3.0979547121       -0.0076643086        0.3001788504
 H         -0.8964425571       -0.8468763771        1.4215955706
 H         -0.8373195043        0.8779252917       -0.9486286353
 H         -0.8300329761       -0.8658849907       -0.9811884692
 H          1.1323420256        2.1250954763       -0.1967635527
 H          3.5761749303        2.1345219441        0.0912182507
 H          4.8051013203        0.0086391506        0.2222717194
 H          3.5879482730       -2.1225923506        0.0685540060
 H          1.1442654466       -2.1233915602       -0.2197642570
  19
  -27.531383900000002       0.23397478827779164      !mtd2
 N         -1.2215951971       -0.0284181539       -0.8715818225
 C         -0.5023654810        0.0063979582        0.3943174671
 C          0.9844996548        0.0061179886        0.2183265337
 C          1.6808453864        1.1990826542        0.1017249362
 C          3.0467338350        1.1985594097       -0.0988819005
 C          3.7305684555        0.0036478364       -0.1924054140
 C          3.0460690241       -1.1902288485       -0.0885578102
 C          1.6803481646       -1.1882364914        0.1122329331
 Cl        -4.3649333730        0.0001893908        0.2335416466
 H         -0.9356459173        0.7633927396       -1.4376975348
 H         -3.1041648858       -0.0115331085       -0.2161352045
 H         -0.9328932859       -0.8489414286       -1.3930535708
 H         -0.8058410506       -0.8507852836        1.0065440925
 H         -0.8114468287        0.8927445610        0.9613944691
 H          1.1432647339        2.1303057197        0.1667998724
 H          3.5788423655        2.1323110898       -0.1843064022
 H          4.7972303772        0.0026983810       -0.3491646672
 H          3.5777034033       -2.1248570248       -0.1662391440
 H          1.1422993950       -2.1182206000        0.1853652303
  19
  -27.531375189999999       0.23182817912881998      !mtd2
 N         -1.1976815725       -0.0245295215        0.9076570637
 C         -0.5137988339        0.0054371830       -0.3778290102
 C          0.9773711791        0.0054400413       -0.2432258044
 C          1.6761608480        1.1986054325       -0.1448967278
 C          3.0471200089        1.1985388132        0.0174636171
 C          3.7338194103        0.0038489354        0.0906145324
 C          3.0472230889       -1.1902480990        0.0046779411
 C          1.6764254278       -1.1887164802       -0.1578831312
 Cl        -4.3676870109       -0.0006831685       -0.1187966972
 H         -0.8945294388       -0.8429785008        1.4240949149
 H         -3.0961305566       -0.0104449699        0.2995920269
 H         -0.8963390078        0.7695418222        1.4625609015
 H         -0.8381930710        0.8893312902       -0.9392221023
 H         -0.8344392510       -0.8543483899       -0.9784187793
 H          1.1365534206        2.1296410757       -0.1939056140
 H          3.5809822270        2.1324508624        0.0890659203
 H          4.8044251541        0.0032072744        0.2176706215
 H          3.5812106933       -2.1247271145        0.0663765765
 H          1.1370164287       -2.1188921769       -0.2172519388
  19
  -27.530127159999999        6.1888698238627533E-002 !mtd1
 N         -1.2587838262       -0.9578928087        0.1267883760
 C         -0.5125503957        0.2900230797        0.0248901916
 C          0.9814767238        0.1461968565       -0.0067184786
 C          1.7676698744        1.2662000787       -0.2361384687
 C          3.1445183219        1.1714455525       -0.2653796519
 C          3.7568896540       -0.0479867043       -0.0633419384
 C          2.9888244053       -1.1703558934        0.1685180311
 C          1.6117986834       -1.0722742308        0.1972062373
 Cl        -4.3727200412        0.2219022349        0.0063083979
 H         -0.9938728096       -1.5743004595       -0.6335516751
 H         -3.1242485194       -0.2578620255        0.0552899745
 H         -1.0106271528       -1.4394211873        0.9845147245
 H         -0.7948493042        0.9396624002        0.8616454788
 H         -0.8412774318        0.8190395012       -0.8780149631
 H          1.2888317703        2.2186350102       -0.3919541743
 H          3.7412933251        2.0510198232       -0.4458147525
 H          4.8321246595       -0.1236365713       -0.0860672186
 H          3.4643525906       -2.1247354255        0.3276132534
 H          1.0211669421       -1.9525754231        0.3789965210
  19
  -27.530119460000002        6.1386471793718922E-002 !mtd4
 N         -1.2604306798        0.9400326102        0.2292540608
 C         -0.5142904669       -0.2668743528       -0.1041851033
 C          0.9803788895       -0.1315594994       -0.0660764278
 C          1.6077970987        1.0823142080        0.1703500910
 C          2.9854671287        1.1740765805        0.1951396321
 C          3.7567737552        0.0504412155       -0.0180481121
 C          3.1471279384       -1.1639637979       -0.2564834756
 C          1.7699034772       -1.2524093135       -0.2805421534
 Cl        -4.3699483102       -0.2414380025        0.0272992066
 H         -0.9811564801        1.2692478135        1.1468384283
 H         -3.1235010319        0.2390507730        0.1098482091
 H         -1.0270413959        1.6807959339       -0.4233307888
 H         -0.8201864894       -0.6061223612       -1.1008127783
 H         -0.8199442375       -1.0662736831        0.5818647888
 H          1.0144328650        1.9640936563        0.3373664300
 H          3.4587669155        2.1247365791        0.3812249104
 H          4.8324095547        0.1210826186        0.0012139171
 H          3.7464700426       -2.0442102546       -0.4243514179
 H          1.2932131588       -2.1998790183       -0.4678106366
  19
  -27.529822830000001        4.4848814067274277E-002 !mtd1
 N         -1.7518999177        1.2262609082        1.0991586423
 C         -0.6555858808        0.5653722189        1.7989862092
 C          0.5216452196        0.3148845393        0.9074788742
 C          1.4423492870        1.3214798509        0.6625504407
 C          2.5079083265        1.1077494576       -0.1888420472
 C          2.6608804451       -0.1146777680       -0.8104279760
 C          1.7453487033       -1.1215236294       -0.5814307764
 C          0.6809919535       -0.9065611345        0.2706203564
 Cl        -2.3933573412       -1.0036149128       -1.2927274607
 H         -2.5044819999        1.4521328607        1.7418391343
 H         -2.1320503928       -0.1062251341       -0.3347294184
 H         -1.4269734763        2.1088337157        0.7182160359
 H         -1.0138942049       -0.3877735284        2.2045064859
 H         -0.3373548393        1.1600339112        2.6648547078
 H          1.3156165153        2.2775211056        1.1424747687
 H          3.2192381122        1.8973458308       -0.3701683652
 H          3.4920573823       -0.2818261267       -1.4764211544
 H          1.8588028683       -2.0752191541       -1.0710891229
 H         -0.0405216002       -1.6874720901        0.4414079408
  19
  -27.529814229999999        4.4442520065856021E-002 !mtd2
 N         -1.7335938911       -1.3120543873        0.9869947776
 C         -0.6558583422       -0.6739198907        1.7351369792
 C          0.5320640616       -0.3683054417        0.8756254847
 C          0.6761542381        0.8767703732        0.2829056782
 C          1.7520813160        1.1434531569       -0.5397168958
 C          2.6940879951        0.1650964383       -0.7834395850
 C          2.5562842538       -1.0809047511       -0.2063128761
 C          1.4795272867       -1.3462244227        0.6157263944
 Cl        -2.4487884808        1.0878262118       -1.2111699597
 H         -1.3879023040       -2.1627204773        0.5554792900
 H         -2.1580315198        0.1208802414       -0.3326491192
 H         -2.4861101866       -1.5919929561        1.6082630532
 H         -0.3443055969       -1.3057991157        2.5761070182
 H         -1.0317458163        0.2550481823        2.1802554933
 H         -0.0662081785        1.6357796144        0.4647092247
 H          1.8539301989        2.1155236527       -0.9947099119
 H          3.5342427666        0.3725388206       -1.4264371617
 H          3.2883136556       -1.8484022161       -0.3995055503
 H          1.3648971528       -2.3201063329        1.0608653756
  19
  -27.529807770000001        4.4139749762822034E-002 !mtd2
 N         -1.7954894743       -1.5310235867       -0.3842055035
 C         -0.7840550053       -1.1875047347       -1.3778633980
 C          0.4626462758       -0.6377442312       -0.7559695521
 C          0.6334305401        0.7294076937       -0.6012551592
 C          1.7652085239        1.2320785873        0.0085089605
 C          2.7377954929        0.3719055987        0.4755142884
 C          2.5747065838       -0.9912847914        0.3350534283
 C          1.4418987674       -1.4924391427       -0.2741543657
 Cl        -2.3440312130        1.4506303403        0.9994506370
 H         -2.5926650634       -1.9809785092       -0.8230682685
 H         -2.1199917389        0.2517505623        0.4484036086
 H         -1.4113638239       -2.2046775894        0.2701120644
 H         -1.2011128739       -0.4481099625       -2.0711876575
 H         -0.5312752057       -2.0636313801       -1.9887136008
 H         -0.1321948513        1.3991496468       -0.9554996867
 H          1.8867370437        2.2971218299        0.1234772088
 H          3.6215384808        0.7638732522        0.9526794267
 H          3.3308124443       -1.6653736088        0.7040029549
 H          1.3075659187       -2.5559957048       -0.3768354876
  19
  -27.528422660000000        1.0192421712135358E-002 !mtd4
 N         -1.6824677339        1.3550437377        0.7672083354
 C         -0.7684269321        1.6212533665       -0.3400123951
 C          0.5347148195        0.8912024362       -0.2105082397
 C          1.7258405946        1.5845963700       -0.0545112564
 C          2.9224278127        0.9077681304        0.0721037167
 C          2.9421636904       -0.4716488606        0.0467176779
 C          1.7630804854       -1.1725216168       -0.1025828399
 C          0.5683091875       -0.4940722760       -0.2283250453
 Cl        -2.7034349695       -1.7028207304       -0.0501092492
 H         -1.2022767546        1.5233989054        1.6442549256
 H         -2.3241959366       -0.4659615133        0.2947100827
 H         -2.4703642225        1.9955142593        0.7457538330
 H         -0.5780304984        2.6982525804       -0.4249603262
 H         -1.2521844582        1.3271681639       -1.2791298575
 H          1.7101353094        2.6614285922       -0.0319551832
 H          3.8420943780        1.4576002183        0.1913742472
 H          3.8763483841       -1.0007178066        0.1455535665
 H          1.7744606552       -2.2504159371       -0.1179714431
 H         -0.3530523580       -1.0408708099       -0.3293769410
  19
  -27.528413870000001        1.0098056121415655E-002 !mtd6
 N         -1.6769462294       -1.3808916069        0.7354775831
 C         -0.7637319366       -1.6129963570       -0.3800679737
 C          0.5370168736       -0.8823288654       -0.2317353136
 C          0.5675613082        0.5029600012       -0.2258124979
 C          1.7603134406        1.1818076756       -0.0827338882
 C          2.9400403608        0.4811032758        0.0608647402
 C          2.9232235423       -0.8987783048        0.0634133073
 C          1.7289187861       -1.5758517962       -0.0805644125
 Cl        -2.7080320409        1.6919417694       -0.0128520433
 H         -2.4625983274       -2.0233215298        0.6976156032
 H         -2.3236651671        0.4493022792        0.3041963140
 H         -1.1947771520       -1.5713595431        1.6069689239
 H         -1.2497145613       -1.2946165233       -1.3095456059
 H         -0.5695818151       -2.6869887547       -0.4955924607
 H         -0.3548483598        1.0496052521       -0.3216341408
 H          1.7693068368        2.2599035161       -0.0798154082
 H          3.8725471691        1.0103809675        0.1733698981
 H          3.8434530408       -1.4485218144        0.1782487032
 H          1.7154259428       -2.6526284200       -0.0758625393
  19
  -27.528409820000000        1.0054871596094707E-002 !mtd3
 N         -1.7148259145       -1.4954370760       -0.2911182891
 C         -0.7214127227       -1.4858598268        0.7789575009
 C          0.5592431108       -0.8152224090        0.3814608363
 C          0.5775895608        0.5348011252        0.0699409727
 C          1.7514915431        1.1571851722       -0.3022919841
 C          2.9240547574        0.4335643794       -0.3716952894
 C          2.9187413697       -0.9131679065       -0.0707274777
 C          1.7433665809       -1.5335724559        0.3022330458
 Cl        -2.7131691780        1.6757956810       -0.1705010030
 H         -1.2961086627       -1.8769171989       -1.1321479554
 H         -2.3439369498        0.3903171155       -0.2306959160
 H         -2.4912896331       -2.1065746704       -0.0564167134
 H         -0.5107644242       -2.5098697593        1.1112458905
 H         -1.1417000242       -0.9685853678        1.6497432059
 H         -0.3403833704        1.0957633197        0.1085142871
 H          1.7510929979        2.2083770375       -0.5417433830
 H          3.8418520727        0.9186419976       -0.6627282631
 H          3.8331963077       -1.4813585395       -0.1270253927
 H          1.7388838222       -2.5849023172        0.5352682210
  19
  -27.528401120000002        9.9627282808755786E-003 !mtd6
 N         -1.7204168897        1.4873820108       -0.2961444532
 C         -0.7293023862        1.4814253137        0.7761872196
 C          0.5552733248        0.8169778556        0.3808687616
 C          1.7374759584        1.5392069521        0.3120318303
 C          2.9166975376        0.9246438899       -0.0589502854
 C          2.9275318187       -0.4199076118       -0.3686070885
 C          1.7567104234       -1.1475752478       -0.3094385732
 C          0.5792976221       -0.5312537201        0.0612528258
 Cl        -2.7070331610       -1.6869188022       -0.1701690329
 H         -2.4996990153        2.0955246753       -0.0631640152
 H         -2.3422765886       -0.4002848274       -0.2325901935
 H         -1.3012539149        1.8706230809       -1.1361740916
 H         -1.1489848538        0.9618295451        1.6452616163
 H         -0.5239260605        2.5065631838        1.1098821679
 H          1.7286336573        2.5894196833        0.5513982600
 H          3.8297745784        1.4959270521       -0.1068599752
 H          3.8481673503       -0.9003134698       -0.6584223589
 H          1.7607792491       -2.1971476083       -0.5556197804
 H         -0.3366119683       -1.0953521368        0.0933229612
  19
  -27.524770849999999        2.1380689538862921E-004 !mtd4
 N         -2.0911363515        0.0120799630       -1.7444905852
 C         -0.7431988461       -0.0121829495       -2.2887364512
 C          0.3130351980       -0.0045557617       -1.2274464266
 C          0.7833855147        1.1927863598       -0.7113104239
 C          1.7213339541        1.2010575280        0.3014690826
 C          2.1948845922        0.0106194110        0.8137418202
 C          1.7279368738       -1.1875451700        0.3130966246
 C          0.7899643212       -1.1944277645       -0.6994833295
 Cl        -1.5222493596       -0.0074408908        2.0503643297
 H         -2.2356667197       -0.7831270669       -1.1331555629
 H         -0.5214670335       -0.0069799873        1.1906279366
 H         -2.2202571462        0.8379759739       -1.1722579539
 H         -0.6084633646        0.8462681387       -2.9568105676
 H         -0.6277929214       -0.8974492184       -2.9254692702
 H          0.4068608147        2.1207955363       -1.1086488029
 H          2.0844927416        2.1383348144        0.6917058721
 H          2.9293693913        0.0164965113        1.6031332938
 H          2.0962904680       -2.1188593373        0.7124938301
 H          0.4184970792       -2.1281370027       -1.0872479992
  19
  -27.523622710000001        6.3441449432069365E-005 !mtd1
 N         -0.6333792904       -0.0731536053        3.4075085242
 C         -1.1361776988       -0.0301657508        2.0443252781
 C         -0.0431664651       -0.0128461445        1.0209410537
 C          0.4924277895        1.1879804122        0.5822040478
 C          1.5232598540        1.2037589944       -0.3357790559
 C          2.0350296222        0.0173220368       -0.8198350733
 C          1.5175628534       -1.1844198793       -0.3812245151
 C          0.4867881697       -1.1987478503        0.5366530115
 Cl        -1.4764418269        0.0389983635       -2.4795607925
 H         -0.0368112764        0.7271186079        3.5830342089
 H         -0.5899694872        0.0184287597       -1.5026011448
 H         -0.0543859330       -0.8945155829        3.5358279118
 H         -1.7757768370        0.8517944360        1.9236468357
 H         -1.7936914779       -0.8912908502        1.8748213328
 H          0.0985403529        2.1126310181        0.9703857280
 H          1.9320305860        2.1436790923       -0.6706220470
 H          2.8423892264        0.0290277989       -1.5344588420
 H          1.9219705643       -2.1127529790       -0.7516395890
 H          0.0884290861       -2.1352879761        0.8892780323
  19
  -27.523620900000001        6.3320054244937003E-005 !mtd1
 N         -0.5928145779       -0.0678095034       -3.4152232646
 C         -1.1118734414       -0.0562225728       -2.0575289828
 C         -0.0312321795       -0.0277859581       -1.0213318191
 C          0.4905782822        1.1785646300       -0.5812788306
 C          1.5104016666        1.2054776453        0.3486678106
 C          2.0247604601        0.0247097646        0.8437247355
 C          1.5210126873       -1.1824754742        0.4040917107
 C          0.5013759086       -1.2079353961       -0.5259001894
 Cl        -1.5051734004        0.0540528190        2.4621673791
 H          0.0068678149       -0.8735267758       -3.5505342973
 H         -0.6070867668        0.0355612752        1.4957859145
 H         -0.0133140078        0.7486023020       -3.5702086139
 H         -1.7505032217       -0.9344753385       -1.9080915715
 H         -1.7736773422        0.8090830124       -1.9316262930
 H          0.0946662194        2.0987383634       -0.9779729298
 H          1.9085906336        2.1496617468        0.6842818351
 H          2.8234658316        0.0450968057        1.5678156563
 H          1.9274541731       -2.1063802146        0.7832393778
 H          0.1140185082       -2.1487839808       -0.8792854637
  19
  -27.523613940000001        6.2855412910177763E-005 !mtd1
 N         -1.8764057378       -0.5650000469        1.7017970140
 C         -0.6455726652        0.0726364590        2.1509204831
 C          0.4297770865        0.0444750396        1.1077767438
 C          0.8443049556        1.2129157707        0.4845929517
 C          1.7595294351        1.1720968696       -0.5478436496
 C          2.2757294514       -0.0374555358       -0.9651910159
 C          1.8785948132       -1.2051545221       -0.3462465579
 C          0.9599527051       -1.1635111439        0.6831422413
 Cl        -1.8786662306        0.2143812068       -1.6914523254
 H         -1.7587015645       -1.5707396511        1.6574623973
 H         -0.6817412742        0.3556827150       -1.1487139322
 H         -2.0652084960       -0.2698580927        0.7492812779
 H         -0.2919501257       -0.4056311441        3.0715981990
 H         -0.8699832297        1.1099384833        2.4264164971
 H          0.4347295056        2.1565542322        0.8056601121
 H          2.0743540155        2.0862364857       -1.0256641469
 H          2.9925866220       -0.0698264517       -1.7699473441
 H          2.2830784429       -2.1509078137       -0.6691673442
 H          0.6373665810       -2.0746286850        1.1580063554
  19
  -27.523613480000002        6.2824824249762526E-005 !mtd4
 N         -2.0156184125       -0.8822460493       -1.3751769623
 C         -0.8348723263       -0.3633552176       -2.0533931725
 C          0.3293953822       -0.1872520069       -1.1266753742
 C          0.7860701198        1.0801132490       -0.7941576699
 C          1.7908377320        1.2427762943        0.1382177761
 C          2.3550365851        0.1393787501        0.7446850969
 C          1.9158037671       -1.1265286992        0.4148059083
 C          0.9079629941       -1.2877489527       -0.5145097360
 Cl        -1.7250137592        0.5733569137        1.7721689637
 H         -1.8872998202       -1.8588642491       -1.1362534040
 H         -0.5825970078        0.5892930032        1.1074300037
 H         -2.1211292892       -0.3962235799       -0.4904610676
 H         -1.0912272696        0.5968320468       -2.5154893073
 H         -0.5604724236       -1.0249390501       -2.8837654099
 H          0.3399832430        1.9419152541       -1.2627552770
 H          2.1383348068        2.2323317445        0.3893073299
 H          3.1419865359        0.2656308768        1.4709021739
 H          2.3573002995       -1.9900117763        0.8857550619
 H          0.5535539024       -2.2737528827       -0.7631895583
  19
  -27.523454200000000        5.3080042578200900E-005 !mtd1
 N         -1.1276326296        0.0014361865       -3.0160695035
 C         -1.3505895097       -0.0414876595       -1.5802782450
 C         -0.0774850065       -0.0217806233       -0.7921746802
 C          0.5211444915        1.1809484330       -0.4539087889
 C          1.7095181056        1.2015368084        0.2475907189
 C          2.3161774948        0.0174500179        0.6126947715
 C          1.7347053089       -1.1863956701        0.2713160719
 C          0.5466070351       -1.2050011721       -0.4304710957
 Cl        -1.3967303214        0.0188836765        2.0626820282
 H         -0.5535747088       -0.7839329904       -3.3002620682
 H         -2.2318242817        0.0251443668        3.0849629788
 H         -0.6076513693        0.8363403954       -3.2587382119
 H         -1.9304760172       -0.9378135478       -1.3317203212
 H         -1.9839381922        0.8044251914       -1.2872247150
 H          0.0472907589        2.1037277121       -0.7443760679
 H          2.1636836798        2.1434144983        0.5101710004
 H          3.2437662453        0.0327117231        1.1619917244
 H          2.2085097631       -2.1129469455        0.5528250276
 H          0.0930246655       -2.1430565163       -0.7025740046
  19
  -27.523432039999999        5.1849817449537806E-005 !mtd1
 N         -1.0792711265        0.0286135298        3.0336243233
 C         -1.3236453743        0.0918492542        1.6020805130
 C         -0.0635709244        0.0559885202        0.7938831977
 C          0.5925829385        1.2295870377        0.4592403830
 C          1.7693571942        1.1956311486       -0.2611388323
 C          2.3068466896       -0.0144949752       -0.6486371158
 C          1.6679335861       -1.1898954361       -0.3108714023
 C          0.4914830406       -1.1539766665        0.4094939493
 Cl        -1.4322150088       -0.0897343486       -2.0420338224
 H         -0.4867291301        0.8001671663        3.3176943553
 H         -2.2851942239       -0.0850889494       -3.0494621071
 H         -0.5708375821       -0.8182896733        3.2585716178
 H         -1.8893025901        1.0021574787        1.3722166707
 H         -1.9782523549       -0.7380860158        1.3100857217
 H          0.1732947431        2.1726842618        0.7677625448
 H          2.2687005578        2.1152241250       -0.5206887900
 H          3.2253307467       -0.0417872191       -1.2125669740
 H          2.0875977724       -2.1368240441       -0.6099354496
 H         -0.0072044918       -2.0697974109        0.6784232410
