19
 energy: -27.535735725301 gnorm: 0.000442463176 xtb: 6.5.1 (fef0646)
N            1.52031048917771        0.23076042073773       -1.04826877644597
C            2.51054855777742        0.03565996996777        0.01947589285119
C            3.00893703549157       -1.38530792735528        0.03072863437796
C            4.35605207330245       -1.66182033483128       -0.15919625162762
C            4.81313429628264       -2.96871540340332       -0.15691040648929
C            3.92381388192958       -4.01252698738740        0.02752927168539
C            2.57755422430032       -3.74376648906338        0.21376573433707
C            2.12090942580976       -2.43825277944328        0.21835044157900
Cl          -1.16089449182760       -0.77690636856266       -0.42367245129050
H            1.32987401308352        1.21816470718981       -1.18302915077150
H            0.11711898070254       -0.35447276311626       -0.70701810358114
H            1.85728343292962       -0.16028933178728       -1.92212709350721
H            2.01161057075646        0.26367678859282        0.96635009853917
H            3.36488659093700        0.71732528559764       -0.09096279573267
H            5.05613397504182       -0.85043509068612       -0.30430587968405
H            5.86462290070951       -3.17031077206708       -0.30082723317096
H            4.27939112884990       -5.03231207075148        0.02768454206223
H            1.88008725495780       -4.55525551563752        0.35795327718463
H            1.07317565978257       -2.22936533798758        0.36415024969527
