12
 energy: -15.823707916891 gnorm: 0.000663665710 xtb: 6.5.1 (fef0646)
N            1.09615218684655        0.29893680303533        0.23130587639800
C            2.55191967239780        0.25921160643818        0.09106722045395
C            3.08994985132835       -1.03515148260786        0.68113444364556
Cl          -0.10611556872152       -1.98144640307106       -1.16471368340014
H            0.70887701099801        1.15021252217284       -0.15947077965136
H            0.82813129891903        0.23329171412595        1.20800102561529
H            0.46834869891944       -0.91846857580974       -0.50987721184897
H            3.03417961498209        1.11950844177861        0.57721599873586
H            2.77718992472146        0.30090613056957       -0.97679411173339
H            2.88431749759272       -1.08291663751170        1.74868771508702
H            4.16445357197478       -1.09635414407104        0.53260879782311
H            2.61656624004137       -1.88485997504906        0.19766470887500
