18
 energy: -25.454408676884 gnorm: 0.000715433832 xtb: 6.5.1 (fef0646)
N            1.10564551543034        0.00369054629892        0.53209543727283
C            2.56335973863820       -0.07486392136104        0.58756906618514
C            3.03377834897746       -1.41337673314056        0.02336936090835
C            4.55878184270792       -1.48336734241649       -0.04659169468807
C            5.00082033458136       -2.80473873982344       -0.64158692618019
I            7.15503898740140       -2.94703661511711       -0.75347800117339
Cl           0.23265399419500       -0.38812335349618       -2.25086944326282
H            0.77284402977320        0.90349597127827        0.85986026978338
H            0.68133599503666       -0.72480336400981        1.09726790459849
H            0.63377653552884       -0.19698773784887       -0.95762615625688
H            2.94809477386569        0.05107838635379        1.60995426842721
H            2.95825997642225        0.73792875030111       -0.02613504587509
H            2.61059509428745       -1.53598930976170       -0.97398226249520
H            2.65717322050783       -2.22462497228044        0.65106386993017
H            4.97883023660368       -1.36775342449750        0.95587263581608
H            4.92958241242341       -0.65986044501061       -0.66074935390218
H            4.63359648724389       -2.92463892986295       -1.65774593163059
H            4.67349247637529       -3.64665876560538       -0.03622799745755
