18
 energy: -25.499902245162 gnorm: 0.000547605002 xtb: 6.5.1 (fef0646)
N            1.26782875166035       -0.24430951780085        0.39699378518836
C            2.73711532920317       -0.19618974130245        0.26124344617106
C            3.13040712245660       -0.48719572042361       -1.18221962404779
C            4.63613844534368       -0.31984725136353       -1.39035901145272
C            4.98776254215176       -0.56581376881125       -2.84324285088904
I            7.12681757291395       -0.37333920299557       -3.20979217261468
Cl           0.09981612591144        1.65855903613428       -1.69342627116984
H            0.96951176552943        0.01456247590917        1.33976644714648
H            0.90773738970845       -1.17305192837848        0.16276216233772
H            0.83337200941572        0.43245283385332       -0.28290739654399
H            3.19359426688694       -0.92220178399319        0.93514207758547
H            3.07545643138573        0.80418629270736        0.52936116420157
H            2.58791084773867        0.20207703473393       -1.83223145679931
H            2.84207063671877       -1.50344253529841       -1.45349785360965
H            5.17834349869339       -1.02268784742224       -0.75445964799257
H            4.93488591304410        0.69142167555523       -1.10825040480979
H            4.50740446292404        0.15600927498001       -3.49858145265137
H            4.72738688831364       -1.57296932608361       -3.15812094004986
