  45
        -68.49501630
 N         -7.9236409327        1.3237569401        1.4290966019
 C         -8.3837219185        0.0067778134        0.9048868163
 C         -7.7616724629       -0.3149759340       -0.4529898090
 C         -6.2947646528       -0.5490808987       -0.3698544355
 C         -5.6897932546       -1.7668623966       -0.2505234712
 C         -4.2847293212       -1.7082915204       -0.1882388709
 C         -3.7744105324       -0.4317846838       -0.2563171141
 C         -2.3986519591       -0.0812576270       -0.2248910235
 C         -1.8842403338        1.2030577640       -0.3018295267
 C         -0.4891409399        1.2833455283       -0.2518762755
 C          0.2374597941        2.5788865595       -0.3249247418
 C          0.1272924926        0.0325026699       -0.1307176868
 C          1.5112192099       -0.2607435635       -0.0518277891
 C          2.0403434235       -1.5405202196        0.0629968877
 C          3.4287105630       -1.5855376521        0.1253343607
 C          4.0479379265       -0.3447098315        0.0625996689
 C          5.4572938921       -0.1441820586        0.1098888608
 C          6.1613367955        1.0503581439        0.0532895387
 C          5.5418295593        2.3967735417       -0.0730942915
 C          7.5633814537        0.8641417979        0.1293124725
 C          7.9500172285       -0.4330312640        0.2417985621
 S          6.5862124624       -1.4690149488        0.2571532224
 S          2.8255729009        0.8840492032       -0.0794628875
 S         -1.0907529587       -1.2109209914       -0.0848398733
 S         -5.0934403098        0.7045322228       -0.3899575915
 H         -8.2794323617        2.0981429955        0.8488574260
 H         -6.8952098298        1.3711818702        1.3989982929
 H         -8.2299568237        1.4908427525        2.4037806226
 H         -9.4786809230        0.0051447805        0.8419732066
 H         -8.1229140941       -0.7822813946        1.6196415238
 H         -7.9501033630        0.5105436662       -1.1469598955
 H         -8.2402081974       -1.1944093191       -0.8979828622
 H         -6.2437044574       -2.6918857619       -0.2118078411
 H         -3.6567014417       -2.5804780879       -0.1002814623
 H         -2.5163049712        2.0709588440       -0.3963964418
 H          0.9069021710        2.5983089902       -1.1845252134
 H          0.8327708128        2.7394259899        0.5738733222
 H         -0.4547760806        3.4152668951       -0.4214917649
 H          1.4177487580       -2.4204409338        0.0996921725
 H          3.9867789865       -2.5036865460        0.2155418003
 H          4.9573058622        2.4685567629       -0.9901837642
 H          6.3002028414        3.1794321034       -0.0978326964
 H          4.8806189127        2.5984350966        0.7692638820
 H          8.2604705885        1.6876712088        0.0992899204
 H          8.9636623726       -0.7794898697        0.3121568618
