21
 energy: -25.724496452834 gnorm: 0.000602713866 xtb: 6.5.1 (fef0646)
N            3.07573301286098       -2.54571660827966       -1.01207964096241
C            2.42988960226320       -1.53816627844850       -1.90482059404576
C            2.86571586853391       -0.14696090485992       -1.43895082291482
C            4.37268106445262       -0.09318620855196       -1.43410158748240
C            5.07284706161569        0.26501808933668       -2.57951984865402
C            6.45620875031682        0.22900300634654       -2.59378886195341
C            7.15652979084837       -0.17933678632454       -1.46878647284858
C            6.47093525645866       -0.53575802136543       -0.32099192919424
C            5.08303468287925       -0.50237709277794       -0.30312209351045
H            3.14251662320822       -3.47221614835292       -1.44352239557311
H            2.56730694169438       -2.62810944443348       -0.12461048685795
H            4.03495559787766       -2.15391459520902       -0.80530401529825
H            1.34713468439135       -1.65484314377101       -1.87559986287167
H            2.77930133175672       -1.70945064772318       -2.92381345759931
H            2.46834125324078        0.05859280781725       -0.44397860163019
H            2.45903918128507        0.59628167597650       -2.12248499662552
H            4.53249029698468        0.58935755736375       -3.45580740479330
H            6.98974571815453        0.52482802884451       -3.48297657768670
H            8.23428930615562       -0.20266635075721       -1.48195250145038
H            7.01035892956771       -0.83077114120335        0.56568551708034
H            4.56518504545320       -0.69783779362706        0.62865663487179
