  28
        -40.33813475
 N         -2.6356619097        1.4045625264        1.0990989590
 C         -1.6382956048        1.8246816768        0.0627083238
 C         -2.2880623695        1.9225537518       -1.3121675881
 C         -0.4422595286        0.9024348480        0.0432312656
 C         -0.6158276051       -0.4909239587       -0.0542421188
 C          0.4530499770       -1.3343464089       -0.0932961421
 C          0.8272757741        1.4120449109        0.0912758225
 C          1.9611209198        0.5689908223        0.0525710872
 C          1.7715006606       -0.8298534605       -0.0405339148
 C          2.9055623476       -1.6734222249       -0.0803999180
 C          4.1623876755       -1.1489479692       -0.0311673566
 C          4.3505788445        0.2372095081        0.0600545865
 C          3.2792488585        1.0783964187        0.1011646309
 Cl        -3.9172934358       -1.6744786520       -0.0085007758
 H         -3.4062951940        2.0857650971        1.1811861619
 H         -2.1919294343        1.3001229344        2.0210115161
 H         -3.0485557816        0.4965048939        0.8419549562
 H         -1.2747251428        2.8254929232        0.3471425459
 H         -2.6616059642        0.9492337727       -1.6285607593
 H         -1.5761088936        2.2615955262       -2.0654295576
 H         -3.1317161466        2.6129694186       -1.3074926508
 H         -1.6150948673       -0.8896136255       -0.0987585432
 H          0.3046287452       -2.3983934975       -0.1666595094
 H          0.9723358560        2.4760644884        0.1560787022
 H          2.7613654509       -2.7383117027       -0.1511533563
 H          5.0200331001       -1.8014554127       -0.0629125244
 H          5.3511260597        0.6371116584        0.0974024338
 H          3.4243935608        2.1432605276        0.1708996775
