  18
        -22.18841064
 N         -0.6105127369       -1.8854394314        0.2926536082
 C          0.6793022909       -1.4823951285       -0.3412645145
 C          1.2439719424       -0.2030074116        0.2635314896
 C          2.5593386217        0.2365756688       -0.3814045570
 C          3.1135423359        1.5167012129        0.2263774608
 Cl        -2.8015421807        0.8342604320       -0.0547154875
 H         -1.0058132204       -2.7347061850       -0.1343049691
 H         -1.3087960225       -1.1280074680        0.1996366938
 H         -0.4858892385       -2.0639668930        1.2981461682
 H          0.5356102149       -1.3477798100       -1.4200071626
 H          1.4112329605       -2.2933313719       -0.2453032224
 H          1.3881051542       -0.3389269115        1.3417496987
 H          0.5035172146        0.6010174468        0.1765215910
 H          2.4085685637        0.3652926791       -1.4611619138
 H          3.2950790813       -0.5734438465       -0.2933039049
 H          2.4090222679        2.3433643799        0.1165900001
 H          4.0521926521        1.8213323152       -0.2417558064
 H          3.3036925346        1.3968892428        1.2946033836
