  18
        -22.18841064
 N         -0.6105127369       -1.8854394314        0.2926536082
 C          0.6793022909       -1.4823951285       -0.3412645145
 C          1.2439719424       -0.2030074116        0.2635314896
 C          2.5593386217        0.2365756688       -0.3814045570
 C          3.1135423359        1.5167012129        0.2263774608
 Cl        -2.8015421807        0.8342604320       -0.0547154875
 H         -1.0058132204       -2.7347061850       -0.1343049691
 H         -1.3087960225       -1.1280074680        0.1996366938
 H         -0.4858892385       -2.0639668930        1.2981461682
 H          0.5356102149       -1.3477798100       -1.4200071626
 H          1.4112329605       -2.2933313719       -0.2453032224
 H          1.3881051542       -0.3389269115        1.3417496987
 H          0.5035172146        0.6010174468        0.1765215910
 H          2.4085685637        0.3652926791       -1.4611619138
 H          3.2950790813       -0.5734438465       -0.2933039049
 H          2.4090222679        2.3433643799        0.1165900001
 H          4.0521926521        1.8213323152       -0.2417558064
 H          3.3036925346        1.3968892428        1.2946033836
  18
        -22.18827299
 N         -0.3661560186       -1.6799276225       -0.6644164714
 C          0.6268108192       -1.7224535202        0.4489452746
 C          1.2568818888       -0.3606579940        0.7275159960
 C          2.1212475788        0.1563236481       -0.4226731653
 C          2.7685588850        1.4984499999       -0.1129664885
 Cl        -2.5834064020        0.9329483121        0.0665001973
 H          0.0843755825       -1.4464244647       -1.5595892992
 H         -1.0798184390       -0.9534423872       -0.4818830445
 H         -0.8533444611       -2.5792847591       -0.7854143054
 H          1.4102887531       -2.4534239039        0.2168155307
 H          0.1348662753       -2.0995669637        1.3547798210
 H          1.8638618633       -0.4056258300        1.6407784152
 H          0.4672029086        0.3684083367        0.9446551679
 H          1.5131998767        0.2368393299       -1.3322450417
 H          2.8913318933       -0.5888878855       -0.6608718634
 H          3.4094837168        1.4343384713        0.7684194993
 H          2.0158150646        2.2618282172        0.0924342864
 H          3.3839772911        1.8589275530       -0.9402720082
  18
        -22.18797817
 N         -0.3691210957       -1.6991758756        0.3164758242
 C          0.8443688432       -1.0362456051       -0.2460448870
 C          1.1118434903        0.3177900617        0.4004471120
 C          2.3034939586        1.0644479919       -0.2072710269
 C          3.6362903629        0.3693350909        0.0314274182
 Cl        -3.0505059578        0.5206549637       -0.1443487617
 H         -0.5634021656       -2.6035605629       -0.1353350917
 H         -1.2002004131       -1.0963985731        0.1901445081
 H         -0.2624750947       -1.8651937324        1.3261808590
 H          0.7277526985       -0.9103955107       -1.3290895529
 H          1.7133194964       -1.6925205662       -0.1214235604
 H          1.2732974495        0.1812618823        1.4760892445
 H          0.2050453726        0.9311653350        0.3246160342
 H          2.3447595620        2.0847132587        0.1984163750
 H          2.1368822418        1.1940829450       -1.2845405182
 H          4.4749158469        0.9424594765       -0.3706995478
 H          3.6655802881       -0.6156950515       -0.4369856559
 H          3.8206099929        0.2248278334        1.0975878955
  18
        -22.18783781
 N         -0.5849152901       -1.8835924829        0.4076739486
 C          0.6964527342       -1.9656114162       -0.3532391152
 C          1.7269494991       -0.9387439353        0.1082635483
 C          1.3184089516        0.5053258684       -0.1836739813
 C          2.3786345857        1.5131808907        0.2358190141
 Cl        -2.2103371922        1.2125302880       -0.1256933449
 H         -1.2500146802       -2.6160183431        0.1222418791
 H         -1.0489763084       -0.9707235597        0.2623999844
 H         -0.4184253086       -1.9858420596        1.4179260471
 H          0.4975558811       -1.8327701335       -1.4232681928
 H          1.1068974869       -2.9789975189       -0.2568541212
 H          2.6964997317       -1.1393495737       -0.3653228503
 H          1.9041903574       -1.0568514956        1.1837275558
 H          0.3714626805        0.7285021792        0.3229888286
 H          1.0994278530        0.6108109307       -1.2542100545
 H          2.5851349080        1.4470020737        1.3057373699
 H          2.0757196144        2.5408438125        0.0232079234
 H          3.3214379103        1.3351537561       -0.2847723991
  18
        -22.18777935
 N         -0.5342820211       -1.8430914309       -0.1827607816
 C          0.8187162381       -1.2552750309       -0.4112427224
 C          1.2169695632       -0.2832773022        0.6929936500
 C          2.6216348045        0.3028786038        0.5192145189
 C          2.7535625973        1.2004146546       -0.7029575117
 Cl        -2.7546742651        0.8637357314        0.0680175014
 H         -0.8137642574       -2.4826415321       -0.9394771531
 H         -1.2452400963       -1.0944029861       -0.1201904801
 H         -0.5633735133       -2.3669209634        0.7022334565
 H          0.8376512857       -0.7478014765       -1.3824393950
 H          1.5638814356       -2.0562393724       -0.4868660020
 H          1.1389580251       -0.7949094011        1.6604435352
 H          0.4832202310        0.5300095849        0.7419013599
 H          3.3502340723       -0.5162085415        0.4623662075
 H          2.8991284178        0.8678132581        1.4198504833
 H          2.5758724935        0.6493533871       -1.6279050270
 H          3.7484411199        1.6450157253       -0.7790684918
 H          2.0314165767        2.0183884228       -0.6715076287
  18
        -22.18774239
 N         -0.0675437161       -1.3680900424       -0.7204462596
 C          0.8215270563       -1.3441014660        0.4774981301
 C          1.1340144169        0.0727528494        0.9515783870
 C          1.8654384364        0.9299566406       -0.0848682973
 C          3.2378712013        0.3880551581       -0.4569450162
 Cl        -2.8526835985        0.6266561092        0.0054181697
 H         -0.9250737249       -0.8223159676       -0.5429055667
 H         -0.3498961287       -2.3279049274       -0.9770744471
 H          0.3961606356       -0.9506415341       -1.5390972719
 H          1.7506874000       -1.8815144943        0.2562850636
 H          0.3482956493       -1.9128199927        1.2884215346
 H          1.7328014025        0.0329989540        1.8704492528
 H          0.1958521235        0.5636638591        1.2402128418
 H          1.9680001657        1.9561869157        0.2945389144
 H          1.2447370793        1.0270140756       -0.9843511857
 H          3.7597153466        1.0418021549       -1.1596377928
 H          3.1687603325       -0.5957429426       -0.9235603060
 H          3.8727690175        0.2827239196        0.4247256252
  18
        -22.18775233
 N         -0.5707306628       -1.8891073002       -0.4022160248
 C          0.6797786828       -1.9554960974        0.4098555249
 C          1.7295190857       -0.9402635890       -0.0335850442
 C          1.3077272516        0.5108689779        0.1982661964
 C          2.3867204507        1.5079055185       -0.1986646549
 Cl        -2.2107497729        1.2117900348        0.0494590061
 H         -0.3646331052       -2.0086208054       -1.4031274639
 H         -1.0408278823       -0.9746050876       -0.2904578045
 H         -1.2459989388       -2.6174447104       -0.1301561893
 H          1.0919204167       -2.9709915033        0.3524371457
 H          0.4390937868       -1.7985082908        1.4681154906
 H          1.9552318934       -1.0884098944       -1.0960825589
 H          2.6768120575       -1.1258499540        0.4888752804
 H          1.0382883907        0.6459655024        1.2538328448
 H          0.3858721774        0.7186308753       -0.3588275824
 H          2.0736669258        2.5409071690       -0.0307211131
 H          2.6445031728        1.4111865109       -1.2549427981
 H          3.3033863399        1.3465537947        0.3716770278
  18
        -22.18756194
 N         -0.4099055904       -1.0338198823        0.2879055457
 C          0.4888671780        0.1217193438       -0.0035560711
 C          1.9606853752       -0.2264577925        0.1803175100
 C          2.8963298384        0.9464248438       -0.1175104011
 C          4.3643075256        0.5890401822        0.0631462885
 Cl        -3.7699518454       -0.0869733076       -0.1883050910
 H         -0.1998297126       -1.8283272798       -0.3311602882
 H         -1.4075171206       -0.7878367365        0.1578674447
 H         -0.2901698221       -1.3574931615        1.2572883566
 H          0.2253306632        0.9680657753        0.6419522237
 H          0.3176390055        0.4751195011       -1.0275190651
 H          2.2193819897       -1.0769846218       -0.4611637363
 H          2.1287724578       -0.5824510287        1.2035844913
 H          2.6314627958        1.7945010540        0.5272980536
 H          2.7172292145        1.3024627415       -1.1404368941
 H          5.0226589562        1.4338717271       -0.1515301030
 H          4.6557714540       -0.2296747426       -0.5973802351
 H          4.5692456243        0.2651856052        1.0852631480
  18
        -22.18745299
 N         -0.2351584212       -0.2111960447       -0.6306441615
 C          0.5160576804       -0.3961209149        0.6454363614
 C          2.0255572947       -0.4807859610        0.4374407271
 C          2.6442465415        0.8248048844       -0.0632873337
 C          4.1550338244        0.7349991750       -0.2239592643
 Cl        -3.7017924209       -0.1885769231       -0.0072974541
 H          0.0138348105        0.6769346551       -1.0870521945
 H         -1.2595624868       -0.2036114937       -0.4758319059
 H         -0.0246164364       -0.9692195001       -1.2943456432
 H          0.1538766890       -1.3030507198        1.1461689516
 H          0.2836475549        0.4271478672        1.3314926957
 H          2.2519257268       -1.2864013615       -0.2707235317
 H          2.5186858665       -0.7751185984        1.3728376340
 H          2.3856412390        1.6370557180        0.6284080998
 H          2.1838978877        1.1080919397       -1.0179315037
 H          4.5869537315        1.6721766893       -0.5823033257
 H          4.4308777744       -0.0459638871       -0.9349631976
 H          4.6396815905        0.4921593286        0.7235259895
  18
        -22.18708158
 N         -0.4171872125       -1.1505385331        0.3485154104
 C          0.6676334805       -0.2346212690       -0.1128521225
 C          2.0543794199       -0.8367027057        0.0793533701
 C          3.1874823616        0.0502352445       -0.4466088563
 C          3.3355526510        1.3575138034        0.3187449853
 Cl        -3.5536099370        0.3808334295       -0.1121929107
 H         -0.3968217540       -2.0372859181       -0.1728742739
 H         -1.3554377340       -0.7308968774        0.2208234391
 H         -0.3078785653       -1.3763603139        1.3464346722
 H          0.5939298833        0.7187165042        0.4227084917
 H          0.5162691595        0.0140764168       -1.1701703657
 H          2.0857577314       -1.8176959867       -0.4110198396
 H          2.2152240850       -1.0454847315        1.1435542908
 H          3.0192052980        0.2574033297       -1.5113954688
 H          4.1356232791       -0.5039155380       -0.4115391034
 H          4.1787121035        1.9506014635       -0.0429112909
 H          3.4965548973        1.1756646303        1.3829123846
 H          2.4432080217        1.9791227895        0.2295222409
  18
        -22.18704111
 N         -0.4164796175       -1.1510229019        0.3534691477
 C          0.6659718018       -0.2326728557       -0.1086468281
 C          2.0535436370       -0.8369816352        0.0699714665
 C          3.1839534914        0.0554154582       -0.4525511694
 C          3.3371711928        1.3537019277        0.3269833697
 Cl        -3.5523160141        0.3800552413       -0.1136332413
 H         -0.3044450635       -1.3789048937        1.3505381698
 H         -0.3965426180       -2.0391150496       -0.1713455850
 H         -1.3528688334       -0.7331124485        0.2294276878
 H          0.5964636615        0.7168775172        0.4341495743
 H          0.5079040110        0.0238268913       -1.1631124684
 H          2.0821602911       -1.8127725625       -0.4308522809
 H          2.2199588814       -1.0569587420        1.1310469820
 H          3.0094419552        0.2748993422       -1.5138647113
 H          4.1320184512       -0.4994889377       -0.4295299742
 H          3.5040046958        1.1594112901        1.3881557606
 H          2.4447839213        1.9768035942        0.2500306256
 H          4.1786467782        1.9503825741       -0.0324495122
  18
        -22.18679486
 N         -0.1026620573       -1.1706610160       -0.9570638321
 C          0.7619737979       -1.4635813325        0.2242119362
 C          1.2028019006       -0.1978577498        0.9690632104
 C          2.5485838716        0.3701812759        0.5043248616
 C          2.5615159329        0.8328813926       -0.9446362382
 Cl        -2.8229300142        0.7197222685        0.1853143339
 H         -0.9425490111       -0.6457370848       -0.6670931304
 H         -0.4180186884       -2.0320336455       -1.4319556160
 H          0.3874860644       -0.5924218750       -1.6524427240
 H          1.6414858128       -2.0412114972       -0.0838144793
 H          0.2077406158       -2.1269527316        0.9015691515
 H          1.2523393395       -0.4020121315        2.0474969252
 H          0.4254387291        0.5677977553        0.8622611002
 H          3.3308711399       -0.3844653111        0.6590608742
 H          2.8338911811        1.2079812217        1.1558274108
 H          2.4336759259       -0.0033825364       -1.6334535552
 H          3.5023862347        1.3209562578       -1.2092129418
 H          1.7585523550        1.5461488814       -1.1394236319
  18
        -22.18596429
 N         -0.1135972074       -0.4023878252        0.7179497450
 C          0.6459292797       -0.7776771773       -0.5113507595
 C          2.1172805419       -1.1043944498       -0.2278022867
 C          3.0679617094        0.0851443492       -0.4040835351
 C          2.7999324937        1.2399582061        0.5489163778
 Cl        -3.4411747254        0.3803310955       -0.1235501252
 H         -0.1176958997       -1.1752536928        1.3980097586
 H         -1.1000111390       -0.1684455254        0.5037316587
 H          0.3030488326        0.4131601672        1.1869842652
 H          0.5799213583        0.0249861113       -1.2554811870
 H          0.1475138032       -1.6383615706       -0.9769808512
 H          2.4461644800       -1.9274371661       -0.8770649915
 H          2.2058781835       -1.4963902764        0.7921075748
 H          3.0111140420        0.4405323620       -1.4413319632
 H          4.1053185524       -0.2558096535       -0.2803944988
 H          1.8274969412        1.6972773552        0.3603935668
 H          3.5474826731        2.0307734155        0.4530234528
 H          2.8105100154        0.9060476934        1.5880359177
  18
        -22.18509914
 N         -0.1772875900       -1.5313069671        0.8129659916
 C          0.6339958246       -1.8672494712       -0.3927311208
 C          1.2677219968       -0.6515280989       -1.0677436629
 C          2.2535072097        0.1279480980       -0.1797308938
 C          1.5960672897        1.2144429104        0.6612140304
 Cl        -2.2370704965        1.1664652009       -0.0182994061
 H         -0.7197363924       -2.3386570478        1.1522007834
 H         -0.8434883871       -0.7685367606        0.6004718391
 H          0.4208838969       -1.2161481584        1.5889919390
 H         -0.0012553299       -2.3987225168       -1.1130765183
 H          1.4157827997       -2.5846498482       -0.1152329925
 H          0.4800454854        0.0288732542       -1.4123553663
 H          1.7769106123       -0.9805734756       -1.9843598526
 H          3.0300046377        0.5890442643       -0.8065995061
 H          2.7973607239       -0.5771225909        0.4619646786
 H          1.0954214698        1.9512017580        0.0299506392
 H          2.3225291550        1.7523719402        1.2744787891
 H          0.8411801144        0.8116417926        1.3360338312
  18
        -22.18500291
 N         -0.1795027662       -1.5371752503        0.8134080074
 C          0.6339533553       -1.8712356421       -0.3913955449
 C          1.2626966365       -0.6537757179       -1.0679615146
 C          2.2456237006        0.1308920191       -0.1814848000
 C          1.5837849290        1.2130065437        0.6616481386
 Cl        -2.2256865343        1.1712949731       -0.0184701350
 H          0.4170047855       -1.2220831769        1.5906193892
 H         -0.7233600972       -2.3474983722        1.1520977290
 H         -0.8439070311       -0.7766164525        0.6010638606
 H          0.0012818560       -2.4063973218       -1.1112914130
 H          1.4185804806       -2.5849911719       -0.1125432978
 H          0.4722105539        0.0229938480       -1.4132896906
 H          1.7729846894       -0.9819807971       -1.9842685928
 H          3.0178659108        0.5970733961       -0.8098505937
 H          2.7951548494       -0.5713378222        0.4584725196
 H          2.3087940206        1.7560648008        1.2723003566
 H          0.8341763202        0.8052649975        1.3392863485
 H          1.0759107465        1.9462157836        0.0321424871
  18
        -22.18313555
 N         -0.3602966816       -1.6517688686       -0.6964717070
 C          0.6607028272       -1.9922893302        0.3364479273
 C          1.8959563504       -1.0931747155        0.3079335187
 C          1.6057151654        0.3954406068        0.5704996354
 C          1.2984942231        1.1910561428       -0.6912295303
 Cl        -2.0272639692        1.3536038126        0.1448286900
 H          0.0668665828       -1.5897306711       -1.6309038680
 H         -0.8092655741       -0.7428977651       -0.4907901211
 H         -1.1107842902       -2.3560412643       -0.7409453591
 H          0.9637656318       -3.0392900892        0.2069534622
 H          0.1977070046       -1.9484621870        1.3297841743
 H          2.4023555949       -1.1952457178       -0.6590847519
 H          2.6211011425       -1.4639892741        1.0458137855
 H          2.4649587619        0.8564988388        1.0780620321
 H          0.7801419092        0.4817773655        1.2887166187
 H          1.0984829763        2.2426312813       -0.4729111038
 H          0.4288015546        0.8008015131       -1.2195381295
 H          2.1357384192        1.1582452560       -1.3909956792
  18
        -22.18040627
 N          0.1498388085       -2.2144379262        0.8066954328
 C          0.1933330964       -1.4380889650       -0.4670930224
 C          1.5983301507       -0.9606245474       -0.8245263580
 C          2.2093436563        0.0029172066        0.1967627515
 C          1.4377348108        1.3073049117        0.3340299814
 Cl        -2.2656579010        1.4567562192       -0.0934209494
 H          0.4348488488       -1.6335026619        1.6060483002
 H          0.7919834236       -3.0203848020        0.7661179827
 H         -0.7940004561       -2.5737098255        1.0058171841
 H         -0.4869480854       -0.5818793343       -0.3981568305
 H         -0.2090815223       -2.0572277086       -1.2793167625
 H          1.5855470596       -0.4758638264       -1.8091134744
 H          2.2497654856       -1.8356780351       -0.9431050126
 H          3.2495640867        0.2214001577       -0.0823074674
 H          2.2818747900       -0.4932628905        1.1725478601
 H          1.9226314222        1.9995976596        1.0261801365
 H          0.4258355583        1.1383546924        0.7051356536
 H          1.3477567430        1.8158370955       -0.6276699092
  18
        -22.18017696
 N          0.1380503388       -1.6567838952       -0.2184608562
 C          0.1523563743       -0.2538027665        0.2908858802
 C          1.5397415217        0.2035312374        0.7324796423
 C          2.5365055345        0.3223137472       -0.4209416350
 C          3.9012524879        0.8215961835        0.0313813327
 Cl        -3.3937821904        0.3378422882       -0.1481878186
 H          0.5001962014       -2.3076847620        0.4908947694
 H          0.7276403592       -1.7556662743       -1.0588694931
 H         -0.8128006866       -1.9622244497       -0.4694031644
 H         -0.5548969146       -0.1683057351        1.1257366805
 H         -0.2295068183        0.4224514143       -0.4833196562
 H          1.9321110932       -0.4924644124        1.4830239827
 H          1.4711264110        1.1705807643        1.2472016112
 H          2.1250009149        0.9911108042       -1.1880555457
 H          2.6411852050       -0.6497200063       -0.9186676483
 H          3.8278976575        1.8069223748        0.4956192682
 H          4.6056800380        0.9023530814       -0.7994730419
 H          4.3422479555        0.1504570035        0.7708017767
  18
        -22.17975405
 N         -0.0384446638       -2.8992306590       -0.1065789380
 C          0.0624847837       -1.4874058448        0.3687198759
 C          1.3107877445       -0.7863504727       -0.1526130835
 C          1.4333129592        0.6595058395        0.3313256310
 C          2.6823730220        1.3523266339       -0.1929268334
 Cl        -2.2301151767        1.4564033406       -0.0836172519
 H          0.7776221278       -3.4453140609        0.1973751326
 H         -0.0688160499       -2.9372199164       -1.1362001104
 H         -0.8820509283       -3.3664749711        0.2515379977
 H          0.0561162347       -1.4633706887        1.4650020433
 H         -0.8299266891       -0.9286566509        0.0624474174
 H          1.3146944716       -0.8103620046       -1.2486182326
 H          2.2011872790       -1.3520556996        0.1460618310
 H          1.4235616788        0.6767661269        1.4289477332
 H          0.5376515112        1.2191455429        0.0321304587
 H          3.5867400449        0.8290301867        0.1234296106
 H          2.7595023797        2.3831714432        0.1598790653
 H          2.6914087581        1.3778525751       -1.2842203490
  18
        -22.17962577
 N         -0.0525875518       -2.8625241376        0.4296544689
 C          0.0701140873       -1.4984241450       -0.1648955041
 C          1.3113258453       -0.7612731824        0.3224420693
 C          1.4520115752        0.6389728655       -0.2769584587
 C          2.6959263487        1.3663821305        0.2115101993
 Cl        -2.2396502577        1.4354288765       -0.2486057350
 H          0.7656830920       -3.4381195078        0.1935855912
 H         -0.8939607724       -3.3557779530        0.0937411888
 H         -0.1061644954       -2.8098537965        1.4549222167
 H         -0.8246958333       -0.9101695914        0.0704141878
 H          0.0890110150       -1.5705133400       -1.2590548991
 H          2.2043749882       -1.3532772326        0.0904850512
 H          1.2925321149       -0.6941569727        1.4166022489
 H          0.5547264720        1.2259426748       -0.0417831388
 H          1.4624218331        0.5654881556       -1.3722700440
 H          2.6859520702        1.4808557124        1.2971395017
 H          2.7856271033        2.3646050606       -0.2227149886
 H          3.6024517477        0.8148127097       -0.0447248958
  18
        -22.17946105
 N         -0.5753752885       -2.4266256966        0.0189324621
 C          0.4532432850       -1.4491375662       -0.4461724194
 C          1.1225275922       -0.7195861324        0.7125647318
 C          2.2228257090        0.2519280871        0.2734895524
 C          1.6986721411        1.4363794740       -0.5257223122
 Cl        -1.9482091882        1.3137939044       -0.0005010055
 H         -1.3120998240       -1.9487171169        0.5542640852
 H         -0.1551905208       -3.1362548336        0.6378745339
 H         -1.0244005273       -2.9175572320       -0.7661091843
 H         -0.0103204317       -0.7265234012       -1.1274425691
 H          1.2127274081       -1.9664093693       -1.0446943524
 H          1.5316808796       -1.4619710188        1.4092089001
 H          0.3626339214       -0.1780102117        1.2881975577
 H          2.9723468198       -0.2937308884       -0.3142813832
 H          2.7654057500        0.6177303090        1.1561531730
 H          2.4948483366        2.1352186362       -0.7924640143
 H          0.9508337407        1.9943437907        0.0407362172
 H          1.2257964935        1.1166874455       -1.4556602041
  18
        -22.17911035
 N         -0.0043035707       -2.9212231845       -0.0255180744
 C          0.0238754874       -1.4659736981        0.3073630740
 C          1.3404136309       -0.8057871160       -0.0830087076
 C          1.3872880357        0.6853065781        0.2547845465
 C          2.7054650589        1.3368889637       -0.1361218783
 Cl        -2.2344592140        1.4625422091       -0.1196643143
 H          0.1275038688       -3.0671786854       -1.0344556155
 H         -0.8972560538       -3.3617636538        0.2438274694
 H          0.7524786177       -3.4205811371        0.4589164486
 H         -0.1549614889       -1.3270491326        1.3802807760
 H         -0.8078349122       -0.9552850231       -0.1925573063
 H          1.5181205096       -0.9470370984       -1.1555113990
 H          2.1710545900       -1.3225493868        0.4119793196
 H          1.2024709818        0.8200026541        1.3284963660
 H          0.5520818856        1.1958713934       -0.2419373685
 H          3.5465774738        0.8649402901        0.3753351155
 H          2.7270725176        2.4008569571        0.1100080686
 H          2.8890709374        1.2447022047       -1.2082380652
  18
        -22.17903762
 N         -0.5622944112       -2.4464451319        0.0574756919
 C          0.4114824815       -1.4295661764       -0.4402671366
 C          1.1847853624       -0.7661238545        0.6931842998
 C          2.2424578442        0.2329711152        0.2130667635
 C          1.6503904804        1.4588113671       -0.4673626322
 Cl        -1.9499975510        1.3320823113       -0.0144402574
 H         -1.2445294115       -2.0145280798        0.6943459743
 H         -0.0796239567       -3.1912807958        0.5821641028
 H         -1.0846893819       -2.8888188020       -0.7107718942
 H         -0.1187183054       -0.6712107619       -1.0275591764
 H          1.1130331015       -1.8998573684       -1.1397119430
 H          1.6545364506       -1.5463001914        1.3051292763
 H          0.4814892848       -0.2616361316        1.3662009223
 H          2.9354854403       -0.2755981200       -0.4696407495
 H          2.8626115530        0.5501459660        1.0628366418
 H          0.9569129001        1.9808662667        0.1946555793
 H          1.0957521910        1.1904207695       -1.3678502575
 H          2.4202770955        2.1746792927       -0.7641656719
