  27
        -35.31573351
 N         -3.3265841716       -1.2600063728       -1.0829540094
 C         -3.6752888610       -0.0280913347       -0.3198128898
 C         -2.7873121731        0.1744105030        0.9066021947
 C         -1.3424944831        0.3837645882        0.5592990238
 C         -0.4350568647       -0.6668232571        0.6293312435
 C          0.9192806632       -0.4897948967        0.2933248452
 C          1.8537357211       -1.5383655467        0.3676688800
 C          3.1783403124       -1.3272173725        0.0333524666
 C          3.6079154475       -0.0762772585       -0.3809956072
 C          2.7178553678        0.9776286510       -0.4656790944
 C          1.3628243806        0.7992174427       -0.1336650499
 C          0.4279984244        1.8455693491       -0.2039519125
 C         -0.8953931794        1.6339239835        0.1350526179
 H         -3.9289908395       -1.3808166836       -1.9117606707
 H         -3.4341187201       -2.1014399624       -0.4970896750
 H         -2.3491799482       -1.2298663063       -1.4099840897
 H         -4.7308585932       -0.0772745914       -0.0229965352
 H         -3.5923453802        0.8414390619       -0.9825911362
 H         -2.8768391150       -0.6924252843        1.5699244254
 H         -3.1382166761        1.0293287583        1.4964039406
 H         -0.7706010609       -1.6357066135        0.9554859543
 H          1.5274029059       -2.5121484200        0.6929899290
 H          3.8836641597       -2.1413151184        0.0971017709
 H          4.6450534712        0.0760313203       -0.6375786027
 H          3.0582591400        1.9485217073       -0.7857726881
 H          0.7550597879        2.8216346600       -0.5222307750
 H         -1.5977950397        2.4492410212        0.0796037742
  27
        -35.31561499
 N         -3.3727193233       -1.1417943855       -1.1547820812
 C         -3.7004193285        0.0169450398       -0.2765953673
 C         -2.7748927310        0.1154961423        0.9347753177
 C         -1.3374663106        0.3367598908        0.5639413870
 C         -0.4105530011       -0.6950421573        0.6587338933
 C          0.9392547653       -0.5025538451        0.3127790438
 C          1.8943198837       -1.5298893504        0.4167777838
 C          3.2139582602       -1.3032535329        0.0729909443
 C          3.6180389466       -0.0576939010       -0.3812918313
 C          2.7073329293        0.9755222629       -0.4958461213
 C          1.3569793791        0.7813562501       -0.1537574139
 C          0.4027574641        1.8079486703       -0.2493385479
 C         -0.9145567764        1.5826001181        0.1041391179
 H         -3.9982869804       -1.1909685683       -1.9737481565
 H         -3.4627231936       -2.0318908102       -0.6425848826
 H         -2.4047805503       -1.0798809336       -1.5047463049
 H         -4.7461318618       -0.0624669513        0.0473264617
 H         -3.6404745480        0.9410510835       -0.8635733620
 H         -2.8571096069       -0.7993724744        1.5311427965
 H         -3.0979356568        0.9258056723        1.5987986319
 H         -0.7263339643       -1.6602839033        1.0141786910
 H          1.5880326667       -2.4991800199        0.7735272590
 H          3.9355055820       -2.1007080395        0.1610075301
 H          4.6514829285        0.1068685610       -0.6451252900
 H          3.0279354048        1.9425367204       -0.8466515905
 H          0.7103854175        2.7802552778       -0.5970872347
 H         -1.6309361205        2.3843651707        0.0330670629
  27
        -35.31554406
 N         -3.6345828887       -0.1334489580       -1.3832785128
 C         -3.5239051604       -0.8038630690       -0.0565901783
 C         -2.7533446345        0.0334036441        0.9626051940
 C         -1.3260482459        0.2748898020        0.5671749024
 C         -0.3667784197       -0.7118437754        0.7613936377
 C          0.9742902209       -0.5158458099        0.3850988209
 C          1.9605573155       -1.4989013608        0.5830897993
 C          3.2699876274       -1.2702821118        0.2035218285
 C          3.6327741536       -0.0663525308       -0.3796145198
 C          2.6904364622        0.9226401406       -0.5893492486
 C          1.3490806876        0.7248803542       -0.2154433009
 C          0.3626659890        1.7063564873       -0.4088460788
 C         -0.9455052640        1.4785029713       -0.0242958765
 H         -4.1301348814        0.7669998010       -1.3032153138
 H         -4.1516717809       -0.7118081011       -2.0632962615
 H         -2.7029780608        0.0576825585       -1.7816791180
 H         -3.0306783285       -1.7747446093       -0.1842797009
 H         -4.5313192355       -1.0279409141        0.3169924766
 H         -2.7726575530       -0.4483180030        1.9473016771
 H         -3.2570648967        0.9959820954        1.1002812019
 H         -0.6525114767       -1.6441805389        1.2164645788
 H          1.6859063715       -2.4357002192        1.0387635660
 H          4.0157213680       -2.0334727270        0.3639752581
 H          4.6586202450        0.1003003905       -0.6703925479
 H          2.9788719138        1.8573540618       -1.0410805142
 H          0.6382383232        2.6462789024       -0.8577313993
 H         -1.6867118375        2.2458258460       -0.1750186847
  27
        -35.31179997
 N         -4.8837859920       -0.5890898887        0.4404593588
 C         -3.4472761705       -0.2472831348        0.6559144427
 C         -2.6488944018       -0.2122725780       -0.6433121884
 C         -1.2024795051        0.1359136692       -0.4400982387
 C         -0.2438488505       -0.8626968055       -0.3123528900
 C          1.1129604933       -0.5545050150       -0.1052673407
 C          2.0987236117       -1.5504600300        0.0157109558
 C          3.4234636860       -1.2105321294        0.2170447289
 C          3.8024753533        0.1198254612        0.3036575806
 C          2.8611744484        1.1252491860        0.1894540027
 C          1.5045674875        0.8164088471       -0.0165045433
 C          0.5183878619        1.8094815674       -0.1389011875
 C         -0.8054306435        1.4685450463       -0.3444747500
 H         -4.9835996257       -1.5153801838       -0.0004510476
 H         -5.3404043108        0.0974892326       -0.1779436912
 H         -5.4113326425       -0.6080644229        1.3271113573
 H         -2.9981055850       -0.9713359922        1.3459852957
 H         -3.3747198150        0.7235735217        1.1602036971
 H         -3.1006507375        0.5068558484       -1.3349603242
 H         -2.7237149980       -1.1812506044       -1.1478515472
 H         -0.5425391915       -1.8944298492       -0.3772208137
 H          1.8112742619       -2.5864828639       -0.0523315249
 H          4.1682968038       -1.9860374461        0.3067299760
 H          4.8399545142        0.3720984109        0.4607543714
 H          3.1617721821        2.1577282516        0.2567225120
 H          0.8056783784        2.8457961388       -0.0728592157
 H         -1.5484081446        2.2435295657       -0.4368382887
  27
        -35.30966099
 N         -4.4066033433        0.9805987750       -0.0494638827
 C         -3.7235842666       -0.2598340028       -0.5238252776
 C         -2.6479785120       -0.7651861045        0.4502519043
 C         -1.2504217654       -0.2761405004        0.1781107034
 C         -0.1657369612       -1.0817454529        0.5099815547
 C          1.1596920052       -0.6620433615        0.2964722189
 C          2.2641693660       -1.4706505486        0.6200726278
 C          3.5535597688       -1.0251329834        0.3965513914
 C          3.7791480602        0.2282873870       -0.1504487342
 C          2.7180235907        1.0500886366       -0.4803098177
 C          1.3930768741        0.6289639258       -0.2673073307
 C          0.2869401469        1.4332380572       -0.5869379748
 C         -1.0009088701        0.9840286212       -0.3627511840
 H         -4.9240250956        0.8025608967        0.8241609679
 H         -5.0876060412        1.3300367025       -0.7410370542
 H         -3.7421951612        1.7435046252        0.1451576600
 H         -3.2813476332       -0.0930950268       -1.5132716061
 H         -4.4901508422       -1.0310773378       -0.6781332177
 H         -2.6317696657       -1.8617298203        0.4429239464
 H         -2.9270859013       -0.4881315948        1.4722503179
 H         -0.3409753460       -2.0514969669        0.9425582682
 H          2.0957285414       -2.4461612093        1.0452313539
 H          4.3905923272       -1.6573506217        0.6495818963
 H          4.7905440236        0.5646509236       -0.3196459711
 H          2.8994949133        2.0236341171       -0.9047888395
 H          0.4535409564        2.4098963819       -1.0103077660
 H         -1.8290212584        1.6198650358       -0.6189657715
  27
        -35.30961492
 N         -4.4726147521        0.8074604502       -0.4301887539
 C         -3.6781093345        0.1020234207        0.6190383169
 C         -2.6465385917       -0.8793173627        0.0367119805
 C         -1.2438495617       -0.3417693800       -0.0507515770
 C         -0.1685021420       -1.1331469089        0.3405149385
 C          1.1580000819       -0.6750578830        0.2446101572
 C          2.2545043467       -1.4643851143        0.6358846956
 C          3.5454102025       -0.9826419774        0.5243469045
 C          3.7805644614        0.2885494454        0.0244475905
 C          2.7275453240        1.0920518266       -0.3701067003
 C          1.4013950051        0.6340504063       -0.2715692252
 C          0.3040313744        1.4160781453       -0.6678342391
 C         -0.9851033693        0.9294558261       -0.5591912264
 H         -5.0177829796        0.1363001450       -0.9914405764
 H         -3.8753571932        1.3342537651       -1.0829956749
 H         -5.1424114341        1.4751892785       -0.0173039931
 H         -4.3788475458       -0.4267176195        1.2791183124
 H         -3.1735468720        0.8335388057        1.2616590300
 H         -2.9681353347       -1.1959169447       -0.9611859461
 H         -2.6283747957       -1.7972843384        0.6360481046
 H         -0.3505987826       -2.1228682628        0.7218368602
 H          2.0787777043       -2.4536637217        1.0247100172
 H          4.3762805366       -1.6005779654        0.8279144131
 H          4.7930574134        0.6529199812       -0.0578262684
 H          2.9164130235        2.0789592961       -0.7590242698
 H          0.4785094989        2.4033814985       -1.0623657704
 H         -1.8083933381        1.5462757307       -0.8719884576
  27
        -35.30952575
 N         -3.7092235817       -1.7965489789       -0.3025127835
 C         -3.4607077385       -0.6266231874        0.5913259385
 C         -2.8350077021        0.5698109751       -0.1434918883
 C         -1.3353597674        0.6572806076       -0.0533304351
 C         -0.5321576511       -0.4738307104       -0.1334569285
 C          0.8702414067       -0.3905042304       -0.0767894180
 C          1.6928102128       -1.5286815144       -0.1525356265
 C          3.0688161591       -1.4087368063       -0.0943042698
 C          3.6609407976       -0.1627159931        0.0400045441
 C          2.8838580521        0.9775467112        0.1171544360
 C          1.4811103080        0.8929022904        0.0607624032
 C          0.6553990923        2.0268358044        0.1312872429
 C         -0.7202769679        1.9035417514        0.0715549298
 H         -4.3922681197       -1.5577787228       -1.0367758938
 H         -4.0911614121       -2.6006555477        0.2187618410
 H         -2.8529707662       -2.1141088177       -0.7791354741
 H         -2.8205032805       -0.9233846563        1.4307326568
 H         -4.4173005215       -0.3372841082        1.0468617314
 H         -3.2576119798        1.5041212814        0.2452420356
 H         -3.1259408231        0.5403739110       -1.1987946092
 H         -0.9851739431       -1.4419898608       -0.2348085433
 H          1.2394653251       -2.5002082968       -0.2575365986
 H          3.6870146712       -2.2910784677       -0.1539688849
 H          4.7362648918       -0.0824789365        0.0841686043
 H          3.3495932877        1.9436786481        0.2205603247
 H          1.1070910703        3.0000923397        0.2304329146
 H         -1.3342906464        2.7878856021        0.1198633041
  27
        -35.30910975
 N         -4.7801828941       -1.0907479478       -0.1073398431
 C         -3.2880331798       -1.0538141323       -0.0854535743
 C         -2.7409659475        0.3653380033        0.0471456175
 C         -1.2411135337        0.5023602232        0.0296234956
 C         -0.3828967854       -0.5928174922        0.0227671182
 C          1.0150847904       -0.4338559518        0.0160171833
 C          1.8942030535       -1.5318511088        0.0064026235
 C          3.2631388582       -1.3394899020        0.0017579616
 C          3.7931038591       -0.0588129401        0.0067840436
 C          2.9599267976        1.0437585806        0.0158712267
 C          1.5624748612        0.8850503148        0.0202443082
 C          0.6816823479        1.9786129262        0.0302726480
 C         -0.6865111296        1.7822054581        0.0353693476
 H         -5.1398530211       -2.0537669043       -0.1922691749
 H         -5.1540244226       -0.5490216735       -0.9005292203
 H         -5.1747873491       -0.6871250156        0.7555496763
 H         -2.9025240723       -1.5163830345       -1.0015454573
 H         -2.9250032070       -1.6725752946        0.7433529967
 H         -3.1215618153        0.8102323303        0.9728882360
 H         -3.1551046500        0.9797074729       -0.7594003990
 H         -0.7839776415       -1.5902964239        0.0230123388
 H          1.4893526084       -2.5301548021        0.0025420637
 H          3.9243369441       -2.1921568960       -0.0056066233
 H          4.8635687338        0.0780759436        0.0037278002
 H          3.3772102176        2.0371544477        0.0200753209
 H          1.0846404972        2.9779239688        0.0349445312
 H         -1.3457326841        2.6348051788        0.0455321067
  27
        -35.30868609
 N         -5.0650802411       -0.2179250473       -0.0062351607
 C         -3.7003033638        0.3738117189       -0.1313386044
 C         -2.5945360157       -0.6591992764        0.0723212880
 C         -1.1813746655       -0.1443863886       -0.0102222140
 C         -0.1340139865       -1.0274937577        0.2298223940
 C          1.2098638269       -0.6178342620        0.1664945353
 C          2.2765608276       -1.5021841915        0.4082302780
 C          3.5854793400       -1.0634583820        0.3378341570
 C          3.8681909325        0.2575382190        0.0273620031
 C          2.8453058127        1.1544146512       -0.2165345804
 C          1.5020297550        0.7425000473       -0.1537424023
 C          0.4331096540        1.6208794517       -0.3949541481
 C         -0.8758021068        1.1805538568       -0.3240744239
 H         -5.2126850826       -0.9629661275       -0.7031432072
 H         -5.8040487533        0.4881301573       -0.1453576884
 H         -5.2058867632       -0.6344809666        0.9264656399
 H         -3.5908842006        1.1844370607        0.5986398920
 H         -3.5991735679        0.8384879273       -1.1190487716
 H         -2.7168230025       -1.4618215436       -0.6628850308
 H         -2.7332944473       -1.1378923806        1.0475480609
 H         -0.3556310095       -2.0527801347        0.4708261102
 H          2.0635165056       -2.5302915328        0.6498565168
 H          4.3930749683       -1.7538985851        0.5260544142
 H          4.8942693918        0.5876771670       -0.0243485155
 H          3.0710646419        2.1801295454       -0.4572610845
 H          0.6447892452        2.6490235522       -0.6380544682
 H         -1.6719215418        1.8792332241       -0.5160907015
