25
 energy: -27.883404593126 gnorm: 0.000928714973 xtb: 6.5.1 (fef0646)
N            2.91491100506961        0.42056870740868        1.01202681444618
C            2.53601873085723       -0.76084861334451        0.20142226296862
C            3.06620677120082       -0.59331053427660       -1.22347323246596
C            4.57461503597825       -0.59052585594271       -1.24904522987876
C            5.27628280505557        0.53762843229006       -1.25622455769421
C            6.77206361288276        0.60015713079804       -1.28493632627124
C            7.38329112007616       -0.74619870860949       -1.66500859669010
C            6.70722820861453       -1.86040516193194       -0.87253264306712
C            5.23214571866776       -1.94108736888640       -1.25765857347293
H            2.71204071135779        0.27333731069896        2.00693508809826
H            2.40926376873535        1.25337770146524        0.68757492564253
H            3.92379050472239        0.59007622251115        0.88685110390806
H            1.45209182308815       -0.86283198986178        0.18802740589099
H            2.96719260787021       -1.65402935896983        0.65267633706089
H            2.68408213935006        0.33252565717540       -1.65330637546729
H            2.70098680956310       -1.42000973067402       -1.83161996588170
H            4.77816856545004        1.49805901331233       -1.27517720298680
H            7.14329382935084        0.90517011884062       -0.30050101653911
H            7.09114024062626        1.36951757565508       -1.99259795086234
H            8.45832368120711       -0.73750177961928       -1.47443047151414
H            7.23795183383631       -0.92592525492008       -2.73283211215815
H            6.80672401556062       -1.65162361836215        0.19460284741184
H            7.19710223032733       -2.81566517530847       -1.07088162242324
H            4.70967342052074       -2.62516898752248       -0.58594402502610
H            5.14485081003108       -2.36064573192575       -2.26540688302822
