28
 energy: -40.975143066697 gnorm: 0.000321428421 xtb: 6.5.1 (fef0646)
N            1.30089952158896        0.52611362358351       -0.55694538345676
C            2.61178470468490        0.09719285112326       -0.02899473128387
C            3.02736033408228       -1.26376626617507       -0.58790728451950
C            2.24891992789680       -2.39902806866942        0.07722994783142
C            2.66198628659691       -3.74680688721334       -0.50461908213316
C            4.17014751056253       -3.97567391090550       -0.29762831338025
C            4.51782018518907       -5.30627412945318       -0.92306218119547
O            4.44378186561481       -6.37848440065582       -0.13244076136498
O            4.81147280619578       -5.44375727104098       -2.08919378184981
C            4.95740859677546       -2.83800808773528       -0.95044286431637
C            4.52806196825707       -1.48828766689652       -0.38377145804101
Cl          -1.23364524724388       -1.13491163303983       -0.09326512246861
H            1.03493852940722        1.43942858922067       -0.18200552031429
H            0.52432101217106       -0.13500071461509       -0.31056525514898
H            1.32211541973417        0.57442157276754       -1.57851985880060
H            2.55080688221999        0.04099643086321        1.05728636131694
H            3.35796756795000        0.84397413727330       -0.30440177004005
H            2.82252030979600       -1.28860925166012       -1.66215518445673
H            1.17563768188682       -2.26588788126348       -0.06355205956125
H            2.44583034121608       -2.39667423455532        1.15089012028724
H            2.44635361330961       -3.77266894660102       -1.57508706951765
H            2.08679070917613       -4.54753042832864       -0.03558851107880
H            4.38261735493473       -3.99866427584893        0.77526901391444
H            4.23198122428707       -6.17177677732715        0.79581977677308
H            4.78516637786991       -2.87243794227565       -2.02767052222500
H            6.02512163921489       -2.99336422847471       -0.78491659063028
H            5.09601488556990       -0.70155400888373       -0.88040769620941
H            4.75945799112002       -1.45324019320092        0.68189578186057
