19
 energy: -24.307888343283 gnorm: 0.000353326967 xtb: 6.5.1 (fef0646)
N            1.92843588368671       -0.01876690947428        0.12389664178811
C            0.71699538979497        0.09661711463674       -0.69364691582887
C           -0.11762688403115       -1.19266127708713       -0.59153915238475
C           -1.27232558107629       -0.84751762260843        0.34660351795700
C           -1.57152263022374        0.60602196150399       -0.00068378929625
C           -0.17891434658673        1.22038733477127       -0.13887397675950
Cl           1.40563002560686       -0.59875876841180        2.94233359001131
H            2.52831098949249       -0.76339995370845       -0.21576337480123
H            1.59953422326805       -0.33326840842606        1.59589999700196
H            2.45241979252554        0.85021241577880        0.11976252078646
H            0.98257716065379        0.29497162579439       -1.74279624627413
H            0.48030786277020       -2.02181417229521       -0.21799998529221
H           -0.50378869218707       -1.46125845025124       -1.57554652296811
H           -0.94045053643505       -0.91808898102053        1.38116418455325
H           -2.13079651024235       -1.50157994732656        0.20564809728069
H           -2.16642941194548        1.10728429389354        0.76010739435890
H           -2.10663428041403        0.66150104563475       -0.95062503048494
H            0.19030613095434        1.50441082431695        0.84635551430984
H           -0.17638858561113        2.10200787427918       -0.77851646395750
