  18
        -23.65657997
 N         -2.6464511781        0.8013822378        0.1923590121
 C         -2.3210875561       -0.4920733131       -0.4795071656
 C         -1.2082576728       -1.2807976995        0.2185648032
 C          0.1405458690       -0.6644789659        0.0967224665
 C          1.3555379098       -1.3366113585        0.0465073791
 C          2.4701615916       -0.4943326923       -0.0549615658
 C          2.1498367843        0.8489375826       -0.0848542436
 S          0.4481439195        1.0351783251        0.0135804824
 H         -2.9566825249        0.6470115127        1.1626240989
 H         -3.4013297247        1.3059870264       -0.2966563786
 H         -1.8271142551        1.4258417148        0.2246952391
 H         -2.0337495039       -0.2975635212       -1.5197165189
 H         -3.2359770025       -1.0967574692       -0.5318546085
 H         -1.1645451208       -2.3002444827       -0.1823766423
 H         -1.4510452922       -1.3899144416        1.2806377667
 H          1.4318632104       -2.4131370341        0.0871368353
 H          3.4869144992       -0.8603741800       -0.1029037356
 H          2.8485170291        1.6627033985       -0.1578322269
  18
        -23.65633857
 N         -2.6539290402        0.6909023114        0.5063186937
 C         -2.3142255901       -0.7598472976        0.4414466147
 C         -1.2446990324       -1.0740834012       -0.6062516542
 C          0.1014326913       -0.5492309465       -0.2551796883
 C          1.1370325057       -1.2680381758        0.3268268128
 C          2.3018280055       -0.5204773592        0.5306963590
 C          2.1933392170        0.7926577704        0.1194341796
 S          0.6246715842        1.0828122006       -0.5117980200
 H         -3.3464725979        0.8907742734        1.2437067878
 H         -3.0485433120        1.0205884384       -0.3867713455
 H         -1.8138888407        1.2574718060        0.7021104145
 H         -3.2308131387       -1.3267936811        0.2329982713
 H         -1.9720475886       -1.0969416480        1.4271988922
 H         -1.5459666186       -0.6549691054       -1.5722017844
 H         -1.1723840257       -2.1562004621       -0.7650386669
 H          1.0541637188       -2.3136996509        0.5828579982
 H          3.2036180481       -0.9327981486        0.9625634480
 H          2.9680795174        1.5355878982        0.1785808405
  18
        -23.65600181
 N         -2.6386044534        0.6694561146        0.5716705273
 C         -2.3151656666       -0.7796034659        0.4313931757
 C         -1.2512959937       -1.0503711644       -0.6337049319
 C          0.0947358271       -0.5361673168       -0.2681718868
 C          1.1068316588       -1.2540089113        0.3545172357
 C          2.2758307767       -0.5160861894        0.5686969647
 C          2.1939559055        0.7880303192        0.1239115804
 S          0.6459091801        1.0816390433       -0.5550293324
 H         -1.7948671835        1.2148082671        0.7971096687
 H         -3.3302753295        0.8382729330        1.3178312027
 H         -3.0291971401        1.0503985940       -0.3053532922
 H         -3.2379905953       -1.3256737292        0.1964748103
 H         -1.9746507786       -1.1700030391        1.3978507801
 H         -1.5582795511       -0.5936519185       -1.5806345393
 H         -1.1773131666       -2.1251137567       -0.8359016448
 H          1.0037974264       -2.2917871305        0.6341157879
 H          3.1616461705       -0.9287904486        1.0321050716
 H          2.9763490923        1.5227222217        0.1849517190
  18
        -23.65582396
 N         -2.6291048445        0.6576658873        0.6055047997
 C         -2.3166783864       -0.7892733069        0.4246857285
 C         -1.2547990837       -1.0380569990       -0.6475601615
 C          0.0909732985       -0.5292892853       -0.2742954481
 C          1.0907384111       -1.2459538474        0.3691395312
 C          2.2621452505       -0.5132072793        0.5877861867
 C          2.1943317642        0.7855722517        0.1254356095
 S          0.6568501370        1.0805763575       -0.5767310859
 H         -3.0134193553        1.0655131715       -0.2591606218
 H         -1.7819159108        1.1901297343        0.8489466404
 H         -3.3232635993        0.8107617451        1.3559497458
 H         -3.2433493845       -1.3220250127        0.1748678707
 H         -1.9790389154       -1.2085641768        1.3799647817
 H         -1.5638090063       -0.5628475941       -1.5846938892
 H         -1.1798839988       -2.1085458166       -0.8709234203
 H          0.9775990331       -2.2795685051        0.6599936475
 H          3.1400061088       -0.9259677139        1.0660290880
 H          2.9812615153        1.5154638880        0.1858076575
  18
        -23.65565592
 N         -2.6225664646        0.6456818506        0.6349980338
 C         -2.3179627302       -0.7980262927        0.4187720178
 C         -1.2580298151       -1.0258816684       -0.6599701645
 C          0.0875993686       -0.5224186660       -0.2795396390
 C          1.0757646927       -1.2384434477        0.3820405253
 C          2.2498561907       -0.5110434689        0.6041755133
 C          2.1955471348        0.7827428557        0.1263661299
 S          0.6676202204        1.0799568287       -0.5952318464
 H         -3.0037783891        1.0764237621       -0.2198607199
 H         -1.7729421817        1.1676406046        0.8924746895
 H         -3.3167441118        0.7838777539        1.3883149286
 H         -3.2473116080       -1.3202277166        0.1569987904
 H         -1.9817700067       -1.2418570929        1.3634009247
 H         -1.5693606335       -0.5335929827       -1.5874786921
 H         -1.1821378427       -2.0918952253       -0.9034863921
 H          0.9526829792       -2.2679300257        0.6832267527
 H          3.1197841492       -0.9241379089        1.0963876293
 H          2.9867337232        1.5080676482        0.1861418975
  18
        -23.65556557
 N         -2.6182654641        0.6684570275       -0.6335673067
 C         -2.3155148238       -0.7821260548       -0.4660754961
 C         -1.2632303466       -1.0480687036        0.6113727054
 C          0.0847178126       -0.5310462586        0.2585053290
 C          1.0710977251       -1.2161084555       -0.4375625325
 C          2.2478779223       -0.4824365067       -0.6213847356
 C          2.1973797576        0.7855478947       -0.0783689749
 S          0.6696562163        1.0511503171        0.6560446005
 H         -3.3049149190        0.8328510494       -1.3851129994
 H         -1.7666095035        1.1988321352       -0.8660075022
 H         -3.0069609598        1.0702188280        0.2349334091
 H         -1.9729257654       -1.1926987536       -1.4232554633
 H         -3.2468003385       -1.3128855882       -0.2291497475
 H         -1.1883695915       -2.1222335488        0.8174575058
 H         -1.5812257603       -0.5892148194        1.5534111231
 H          0.9446191398       -2.2284698071       -0.7908780659
 H          3.1169981646       -0.8730026591       -1.1330174357
 H          2.9913055230        1.5100027278       -0.1005056290
  18
        -23.65544198
 N         -2.6128598415        0.6296266078        0.6732085338
 C         -2.3199851966       -0.8088027011        0.4104453733
 C         -1.2623222388       -1.0099945697       -0.6756163821
 C          0.0831050695       -0.5134869017       -0.2860730127
 C          1.0561425740       -1.2281958454        0.3987658785
 C          2.2336483190       -0.5077530808        0.6253160062
 C          2.1970302824        0.7790484918        0.1273035213
 S          0.6814053058        1.0786598968       -0.6189474487
 H         -1.7596338527        1.1358433628        0.9491071115
 H         -3.3057085750        0.7485012392        1.4278439461
 H         -2.9898515981        1.0925539979       -0.1696088967
 H         -3.2533515699       -1.3152968521        0.1326125428
 H         -1.9869429969       -1.2850911772        1.3402631396
 H         -1.5761680161       -0.4961421056       -1.5905137743
 H         -1.1854291701       -2.0698244118       -0.9445053463
 H          0.9196854686       -2.2518240235        0.7138016408
 H          3.0934117390       -0.9208096406        1.1350811124
 H          2.9938847078        1.4981834846        0.1865188449
  18
        -23.65474350
 N         -2.5726675215        0.4662670069       -0.9629077386
 C         -2.3843197635       -0.2388408062        0.3373008302
 C         -1.2259239962       -1.2375763539        0.3091831369
 C          0.1119845965       -0.6139744052        0.1207027788
 C          1.2356034203       -1.2572007734       -0.3815502281
 C          2.3789627410       -0.4525945278       -0.4308050688
 C          2.1694270353        0.8316208694        0.0289408103
 S          0.5352665170        1.0213424829        0.5146251768
 H         -3.3488458052        1.1439282192       -0.9219355013
 H         -2.7832482618       -0.2001517817       -1.7201239668
 H         -1.7204888998        0.9831399031       -1.2315716817
 H         -3.3197395996       -0.7479328286        0.6034027845
 H         -2.2130205921        0.5010444532        1.1284415094
 H         -1.3956159250       -1.9618385096       -0.4944777664
 H         -1.2081696203       -1.8212950817        1.2369213445
 H          1.2282604026       -2.2916379523       -0.6913197652
 H          3.3373888093       -0.8048179649       -0.7873988168
 H          2.9107164829        1.6082767957        0.0833283005
  18
        -23.65426421
 N         -2.5434507855        0.4174311693        1.0592914309
 C         -2.3946492141       -0.2077235345       -0.2862069438
 C         -1.2391463673       -1.2076082312       -0.3502117799
 C          0.0968608830       -0.5948004351       -0.1222743094
 C          1.1436178475       -1.1626905846        0.5919961272
 C          2.2992576957       -0.3753468972        0.6294732101
 C          2.1748944299        0.8185707489       -0.0515020987
 S          0.6059425592        0.9455622061       -0.7337760978
 H         -2.7343657835       -0.2936979640        1.7799500419
 H         -3.3190068131        1.0969086603        1.0817684290
 H         -1.6827193304        0.9167598991        1.3343078221
 H         -2.2418497221        0.5795008143       -1.0341324408
 H         -3.3386284818       -0.6977260483       -0.5580871340
 H         -1.2284073040       -1.7143449276       -1.3224784098
 H         -1.4022625164       -1.9947885461        0.3930810793
 H          1.0752255257       -2.1325286793        1.0616711941
 H          3.2064217290       -0.6763540469        1.1355805101
 H          2.9404425680        1.5663901997       -0.1531672669
  18
        -23.65417685
 N         -2.5251570251        0.2874097598       -1.1516399630
 C         -2.4006583579       -0.1722736742        0.2613446950
 C         -1.2479339465       -1.1565757346        0.4647047039
 C          0.0919109686       -0.5737696847        0.1867322191
 C          1.1346746693       -1.2028161495       -0.4805819878
 C          2.2944215205       -0.4271992269       -0.5816819739
 C          2.1770707532        0.8181190929        0.0015002416
 S          0.6094949664        1.0078950399        0.6723294051
 H         -3.2990930385        0.9587529361       -1.2685822564
 H         -2.7047925401       -0.5050221016       -1.7853748170
 H         -1.6590974880        0.7508357457       -1.4694949838
 H         -3.3498442771       -0.6266983869        0.5735024603
 H         -2.2595779938        0.6990206523        0.9122062582
 H         -1.3995780915       -2.0281500021       -0.1806867401
 H         -1.2537976941       -1.5421380054        1.4908974993
 H          1.0607209607       -2.2068582443       -0.8707834436
 H          3.1995067353       -0.7726615155       -1.0624794334
 H          2.9467684819        1.5674589885        0.0425870731
  18
        -23.65406577
 N         -2.5164969904        0.2378553511       -1.1911838048
 C         -2.4046505170       -0.1573126292        0.2422252184
 C         -1.2542036562       -1.1314486081        0.4997916108
 C          0.0865079444       -0.5611149391        0.2018957727
 C          1.1064798612       -1.1874535262       -0.5020893062
 C          2.2716678989       -0.4216783714       -0.6148322546
 C          2.1809241889        0.8129254745       -0.0046993568
 S          0.6314694972        1.0051552106        0.7064396705
 H         -1.6489699288        0.6839364079       -1.5216555643
 H         -3.2882139373        0.9045549640       -1.3449328786
 H         -2.6927913249       -0.5840645386       -1.7911875401
 H         -3.3567345284       -0.5968963404        0.5665202064
 H         -2.2684284224        0.7426804989        0.8539032649
 H         -1.4020600599       -2.0332087770       -0.1036202756
 H         -1.2662753943       -1.4671474602        1.5433142411
 H          1.0128797706       -2.1825341516       -0.9105179405
 H          3.1615193857       -0.7663851073       -1.1237577708
 H          2.9588608170        1.5539047733        0.0325027080
  18
        -23.65396330
 N         -2.5129876944        0.1991560923       -1.2183472650
 C         -2.4076722235       -0.1461794087        0.2283731324
 C         -1.2589525370       -1.1111424205        0.5248025724
 C          0.0826038189       -0.5508366058        0.2125002947
 C          1.0852345678       -1.1757108111       -0.5171731019
 C          2.2550347861       -0.4182471193       -0.6380605905
 C          2.1850188551        0.8080996801       -0.0087769612
 S          0.6488421915        1.0034997546        0.7297769172
 H         -2.6852017033       -0.6412813302       -1.7888950404
 H         -1.6444220451        0.6350448446       -1.5600368410
 H         -3.2865321693        0.8604900588       -1.3992860505
 H         -3.3614067878       -0.5737425618        0.5636795781
 H         -2.2736150044        0.7745466941        0.8088691981
 H         -1.4043224386       -2.0338061194       -0.0467672085
 H         -1.2751199529       -1.4098589732        1.5794646291
 H          0.9763848968       -2.1641890144       -0.9376239739
 H          3.1338953034       -0.7635186244       -1.1653626234
 H          2.9704767508        1.5411514570        0.0274884454
  18
        -23.65387821
 N         -2.5284067853        0.2847128744        1.1877674537
 C         -2.4081167436       -0.1568792156       -0.2313611018
 C         -1.2575547256       -1.1401278009       -0.4501987721
 C          0.0804662823       -0.5585922832       -0.1632985653
 C          1.0483335257       -1.0927199850        0.6769179891
 C          2.2228011613       -0.3356416424        0.7421705600
 C          2.1907577686        0.8000966827       -0.0413872431
 S          0.6842240166        0.9114954601       -0.8547032171
 H         -2.7084471099       -0.5153915259        1.8114293350
 H         -3.3010126394        0.9559437274        1.3150081035
 H         -1.6609450068        0.7427055081        1.5098347930
 H         -2.2665637278        0.7227609958       -0.8706430321
 H         -3.3588438155       -0.6054708186       -0.5475277407
 H         -1.2632697484       -1.5093761214       -1.4826231582
 H         -1.4088227733       -2.0221215020        0.1805689176
 H          0.9122105736       -2.0181644293        1.2160627109
 H          3.0780332075       -0.6172470035        1.3412611811
 H          2.9862160176        1.5160894864       -0.1424780919
  18
        -23.65037590
 N         -3.6391127769       -0.2991519382       -0.1923281317
 C         -2.2024423230       -0.0541793612       -0.5163718712
 C         -1.2485119594       -0.6283302063        0.5283203280
 C          0.1833800203       -0.3600600024        0.2279151233
 C          1.1420569343       -1.2941180178       -0.1407507583
 C          2.4114694595       -0.7473037218       -0.3562105139
 C          2.4637745504        0.6183573603       -0.1628114978
 S          0.9170200536        1.2087831568        0.2873904722
 H         -3.8399576161       -1.3075624465       -0.1291438886
 H         -4.2655769492        0.0974916078       -0.9088509736
 H         -3.8952304995        0.1258836725        0.7132901078
 H         -2.0323160712        1.0244751539       -0.6133071605
 H         -1.9724795624       -0.4794624071       -1.5005987259
 H         -1.4071640062       -1.7078250288        0.6192147103
 H         -1.4880224115       -0.2131893428        1.5128676294
 H          0.9273335025       -2.3472083565       -0.2433164636
 H          3.2711125113       -1.3376391731       -0.6427819766
 H          3.3374145399        1.2350976465       -0.2721285092
  18
        -23.65029230
 N         -3.6385174815       -0.2948373826        0.2930902749
 C         -2.1968101724       -0.0324736729        0.5789239927
 C         -1.2617273424       -0.6418297533       -0.4628304911
 C          0.1748581664       -0.3618800384       -0.1986944034
 C          1.1136984857       -1.2526708996        0.3034306075
 C          2.3932149310       -0.7055185827        0.4458040693
 C          2.4730113537        0.6178482962        0.0617242916
 S          0.9392340382        1.1686575031       -0.4748705877
 H         -3.8359812083       -1.3056552258        0.2710815496
 H         -3.9138507746        0.0946295036       -0.6202055538
 H         -4.2538760209        0.1264872192        1.0084990719
 H         -1.9455859196       -0.4203676202        1.5731973010
 H         -2.0294947963        1.0497811074        0.6329248285
 H         -1.5204156830       -0.2611603409       -1.4566348835
 H         -1.4196648145       -1.7238720039       -0.5138955666
 H          0.8776258712       -2.2762082590        0.5528539929
 H          3.2403120374       -1.2658874268        0.8172821139
 H          3.3585022778        1.2267979378        0.0871292626
  18
        -23.65012714
 N         -3.6455392417       -0.3565213511       -0.2313949290
 C         -2.2054335513       -0.1677379908       -0.5772561835
 C         -1.2657235037       -0.5152147676        0.5747535254
 C          0.1692433932       -0.3014150980        0.2485475809
 C          1.0693479866       -1.2616412204       -0.1922303746
 C          2.3578151639       -0.7668945057       -0.4201343447
 C          2.4830250506        0.5839044832       -0.1654219647
 S          0.9802760156        1.2263092893        0.3569207766
 H         -3.8409328358       -1.3335349345        0.0303181416
 H         -4.2630124101       -0.1177868753       -1.0219078747
 H         -3.9188968540        0.2392371451        0.5665620182
 H         -2.0400136131        0.8715333318       -0.8849556396
 H         -1.9577086220       -0.7783660684       -1.4536291539
 H         -1.4194946122       -1.5559746927        0.8782511010
 H         -1.5232422725        0.0863424906        1.4527004403
 H          0.7994532419       -2.2968698213       -0.3370613203
 H          3.1789168930       -1.3835361068       -0.7594226474
 H          3.3829268629        1.1622187284       -0.2716790074
  18
        -23.64767121
 N         -2.8464053371       -1.5972144315       -0.3282719951
 C         -2.4136096065       -0.4552239490        0.5310211191
 C         -1.4856355608        0.5322814487       -0.1928017060
 C         -0.0326953786        0.2236435859       -0.0871998207
 C          0.5822180568       -1.0204983213       -0.0931630210
 C          1.9762613978       -0.9683419214        0.0125848042
 C          2.4751164244        0.3151934310        0.1012247984
 S          1.1881469214        1.4480903731        0.0521758672
 H         -3.4429993507       -2.2590954142        0.1905616958
 H         -2.0460908776       -2.1276529144       -0.6992454777
 H         -3.3933672135       -1.2635568005       -1.1383641975
 H         -1.9203567705       -0.8325397043        1.4346278017
 H         -3.3153648083        0.0620088044        0.8856088186
 H         -1.6403368408        1.5452988432        0.1985429633
 H         -1.7630578221        0.5854099273       -1.2505862998
 H          0.0384613594       -1.9479152797       -0.1670464902
 H          2.6047640320       -1.8483935880        0.0229833198
 H          3.5129083959        0.5820975339        0.1878316820
