  17
  -20.744803099999999       0.39177818077710819      !mtd4
 N         -1.3954558888        1.6175204296       -0.4287945489
 C         -2.1905912515        0.7130816314        0.4524188839
 C         -2.2624634369       -0.7316833027       -0.0478744016
 C         -1.0266958565       -1.6030772994        0.2437194354
 C          0.2101238033       -1.2944661332       -0.5894249079
 Br         1.2304994383        0.1795763586        0.0851080549
 H         -1.3966841669        2.5875752416       -0.0787942215
 H         -1.7725499340        1.6359480886       -1.3877126715
 H         -0.4032829568        1.3068759835       -0.4796025429
 H         -3.2033359882        1.1306801172        0.5358631406
 H         -1.7818490889        0.7365923684        1.4697204425
 H         -2.4594803605       -0.7292429801       -1.1252939825
 H         -3.1431044492       -1.2138364323        0.3979994591
 H         -1.2979152965       -2.6575973878        0.0899479862
 H         -0.7698739854       -1.5304630863        1.3074712211
 H         -0.0455388898       -1.0976362369       -1.6316520003
 H          0.9123607001       -2.1325566727       -0.5873731217
  17
  -20.743669040000000       0.11799466036906937      !mtd3
 N         -1.5880609509        1.7112314509       -0.5938561709
 C         -2.0460756064        0.7571775637        0.4615778803
 C         -2.2348711444       -0.6774236286       -0.0506440640
 C         -1.0301007587       -1.6151880191        0.1423176532
 C          0.2123737542       -1.2600281472       -0.6607376642
 Br         1.2416609266        0.1375306925        0.1503807192
 H         -1.4743855402        2.6649779233       -0.2193912216
 H         -2.2672742710        1.7660976193       -1.3665583988
 H         -0.6831709448        1.4286830093       -0.9944142983
 H         -2.9906539203        1.1408251095        0.8715079352
 H         -1.3432225259        0.7670260530        1.3031492547
 H         -2.5039218918       -0.6436851053       -1.1119519974
 H         -3.1078400310       -1.1239284867        0.4445764672
 H         -1.3367425940       -2.6401025985       -0.1115683745
 H         -0.7653418697       -1.6542830984        1.2061984637
 H         -0.0364878218       -0.9708675279       -1.6827393102
 H          0.9023235965       -2.1055744863       -0.7269810323
  17
  -20.743614740000002       0.11140580018618995      !mtd4
 N         -1.4770023806        1.7480773108        0.7550098784
 C         -2.0965112112        0.7406452937       -0.1589311090
 C         -2.1933337976       -0.6633496438        0.4538507604
 C         -1.0319384641       -1.6155804121        0.1184471625
 C          0.3236185358       -1.2215625933        0.6859270766
 Br         1.1993725603        0.1230799461       -0.3607417781
 H         -0.5180393725        1.4833409107        1.0181546222
 H         -2.0221847416        1.8478177332        1.6234794720
 H         -1.4293751849        2.6798071674        0.3161977190
 H         -1.5398892152        0.7019320869       -1.1028665679
 H         -3.0968056958        1.1059645082       -0.4298781690
 H         -3.1332416826       -1.1320061855        0.1319603643
 H         -2.2861641821       -0.5710510936        1.5414025980
 H         -0.9448934812       -1.7149048517       -0.9706076283
 H         -1.2878550121       -2.6234764239        0.4756562616
 H          1.0190022497       -2.0652448652        0.6859908049
 H          0.2441325435       -0.8738496821        1.7168556519
  17
  -20.743600449999999       0.10973383898772462      !mtd4
 N         -1.4774056676        1.7482422936        0.7553827754
 C         -2.0958658171        0.7407284994       -0.1591807957
 C         -2.1931994822       -0.6632145797        0.4536992251
 C         -1.0318298439       -1.6155639097        0.1186151633
 C          0.3235937051       -1.2213167361        0.6863056620
 Br         1.1993043306        0.1229521868       -0.3608510967
 H         -1.4299278924        2.6799994268        0.3168170934
 H         -0.5184332667        1.4838071440        1.0191470013
 H         -2.0233028192        1.8476844567        1.6234355131
 H         -1.5381346917        0.7019764859       -1.1024614080
 H         -3.0958720969        1.1059058189       -0.4313694840
 H         -3.1331439265       -1.1317283992        0.1317258273
 H         -2.2862004616       -0.5708239337        1.5412274992
 H         -0.9445855969       -1.7150077115       -0.9704195856
 H         -1.2877835920       -2.6234327355        0.4758847524
 H          1.0189987105       -2.0649698462        0.6871142291
 H          0.2437951987       -0.8729732852        1.7169958122
  17
  -20.742681149999999        4.1481986400989677E-002 !mtd2
 N         -1.8857553939        1.7068128390        0.8442410596
 C         -1.9303515352        0.8333050928       -0.3674312068
 C         -2.1696680190       -0.6407569503       -0.0478419786
 C         -1.0338796074       -1.3395848753        0.7154112799
 C          0.2559754172       -1.5066179127       -0.0749828162
 Br         1.2658879136        0.1147383064       -0.2201804695
 H         -2.7581305964        1.6329555643        1.3868173907
 H         -1.7663648680        2.6991243156        0.5914501535
 H         -1.1072456953        1.4563478498        1.4698218309
 H         -1.0000161920        0.9490991793       -0.9342935924
 H         -2.7222511002        1.2048568596       -1.0316529327
 H         -2.3619077956       -1.1932321628       -0.9756927790
 H         -3.0994880631       -0.7208871919        0.5283917420
 H         -1.3820318852       -2.3299438035        1.0417638944
 H         -0.8193780957       -0.7956908364        1.6422215760
 H          0.0635513436       -1.8761028569       -1.0835721630
 H          0.9322730930       -2.2189260397        0.4046584984
  17
  -20.742508430000001        3.4552774723252598E-002 !mtd2
 N         -1.8980222330        1.7079911605        0.8511802193
 C         -1.9279621210        0.8397221283       -0.3647561189
 C         -2.1656126863       -0.6365304420       -0.0537089586
 C         -1.0350569691       -1.3356042594        0.7173531492
 C          0.2580338389       -1.5082865584       -0.0661138436
 Br         1.2672233667        0.1122031604       -0.2230815717
 H         -1.1220517238        1.4604891525        1.4809558807
 H         -2.7735452664        1.6257093770        1.3876761877
 H         -1.7840803792        2.7022196598        0.6033343869
 H         -0.9927461430        0.9614137517       -0.9222486060
 H         -2.7149243035        1.2114919934       -1.0346862063
 H         -2.3480874975       -1.1857978244       -0.9853968376
 H         -3.1003456299       -0.7214211477        0.5138503276
 H         -1.3868362351       -2.3241842990        1.0452540974
 H         -0.8239815726       -0.7890624148        1.6433588525
 H          0.0699294527       -1.8873220711       -1.0720068276
 H          0.9329784013       -2.2157187814        0.4225882471
  17
  -20.742507639999999        3.4523901574784799E-002 !mtd1
 N         -1.8976796945        1.7077414815        0.8515283984
 C         -1.9278266392        0.8397177457       -0.3645780268
 C         -2.1654409095       -0.6365982618       -0.0538093204
 C         -1.0350594262       -1.3357114781        0.7174727041
 C          0.2582273242       -1.5083474561       -0.0656668100
 Br         1.2670595099        0.1123016414       -0.2232741895
 H         -1.7835627656        2.7019128604        0.6038890020
 H         -1.1216681745        1.4599630095        1.4812829408
 H         -2.7732090334        1.6255323327        1.3880258259
 H         -0.9926960278        0.9615194260       -0.9221910482
 H         -2.7148840065        1.2116305336       -1.0343177417
 H         -2.3476194075       -1.1857407406       -0.9856287343
 H         -3.1003235657       -0.7216375028        0.5134829426
 H         -1.3869049243       -2.3243207153        1.0452138618
 H         -0.8242327691       -0.7892422464        1.6435760490
 H          0.0704196171       -1.8879269312       -1.0714095618
 H          0.9332821106       -2.2153463693        0.4235093994
  17
  -20.742410670000002        3.1156993474679685E-002 !mtd2
 N         -1.9051867244        1.7094730545        0.8530018930
 C         -1.9264776915        0.8425712438       -0.3641080997
 C         -2.1642496955       -0.6343281970       -0.0561348541
 C         -1.0358074645       -1.3338573254        0.7176768862
 C          0.2583998488       -1.5088941473       -0.0634115668
 Br         1.2683206968        0.1107941684       -0.2237092019
 H         -1.1336687568        1.4614139371        1.4880028135
 H         -2.7845115965        1.6266283731        1.3831602264
 H         -1.7895388327        2.7039784940        0.6070714361
 H         -0.9879959415        0.9660341301       -0.9156632673
 H         -2.7097721741        1.2141814550       -1.0384078379
 H         -2.3432656865       -1.1823892809       -0.9891980748
 H         -3.1008463281       -0.7205269084        0.5081416953
 H         -1.3891997807       -2.3217220550        1.0459949099
 H         -0.8257462383       -0.7865922558        1.6434768102
 H          0.0716283093       -1.8906813144       -1.0685145967
 H          0.9324461994       -2.2151730332        0.4281829586
  17
  -20.742284710000000        2.7268944959454110E-002 !mtd2
 N         -1.9171025168        1.7125496026        0.8545431543
 C         -1.9251092123        0.8469499995       -0.3636791126
 C         -2.1628594208       -0.6307655254       -0.0594185949
 C         -1.0369318693       -1.3307433903        0.7177659426
 C          0.2582234523       -1.5095478616       -0.0609055234
 Br         1.2706170131        0.1083027187       -0.2240064162
 H         -1.8006490766        2.7074317076        0.6108801706
 H         -1.1512260931        1.4649452135        1.4966418213
 H         -2.8013748685        1.6275980546        1.3760789885
 H         -0.9817799262        0.9728918384       -0.9062897434
 H         -2.7029106324        1.2177890389       -1.0447279638
 H         -2.3375553766       -1.1773980797       -0.9941260647
 H         -3.1016995964       -0.7185978740        0.5008513568
 H         -1.3925128654       -2.3174162978        1.0472840746
 H         -0.8274690405       -0.7819902600        1.6428080101
 H          0.0724309001       -1.8936241834       -1.0653235906
 H          0.9304475944       -2.2156706782        0.4334079561
  17
  -20.742248159999999        2.6234398932194352E-002 !mtd2
 N         -1.9178015108        1.7114947381        0.8573530626
 C         -1.9241570661        0.8480329044       -0.3623876330
 C         -2.1614473890       -0.6303278990       -0.0609753062
 C         -1.0372356893       -1.3303139075        0.7186932274
 C          0.2593331073       -1.5100330066       -0.0573528593
 Br         1.2702018981        0.1082730011       -0.2253788336
 H         -1.1520292487        1.4639837088        1.4994874847
 H         -2.8021756432        1.6243581362        1.3783609920
 H         -1.8028456857        2.7070550937        0.6153832329
 H         -0.9803382755        0.9754522130       -0.9037992283
 H         -2.7013772077        1.2196456928       -1.0436762564
 H         -2.3328477124       -1.1758495590       -0.9969405115
 H         -3.1019223687       -0.7197948121        0.4962963587
 H         -1.3937046970       -2.3167137383        1.0480565638
 H         -0.8294480759       -0.7811753234        1.6438711974
 H          0.0754949748       -1.8980284011       -1.0606257490
 H          0.9317415958       -2.2134158574        0.4405978041
  17
  -20.742166170000001        2.4054211388041462E-002 !mtd4
 N         -1.9955104514        1.7319446370       -0.6262492074
 C         -1.8782046711        0.8385891486        0.5660306835
 C         -2.1451447822       -0.6324184784        0.2535218787
 C         -1.1036110914       -1.3113962648       -0.6498166320
 C          0.2617888438       -1.5111024656       -0.0084325808
 Br         1.2871247279        0.1027898181        0.1056302415
 H         -1.8554071656        2.7213195887       -0.3729001705
 H         -2.9284813202        1.6562355779       -1.0562973836
 H         -1.2995435544        1.5014570113       -1.3491939643
 H         -2.5822989177        1.1914272913        1.3315810285
 H         -0.8843527332        0.9548243653        1.0119751262
 H         -3.1359710532       -0.7097597112       -0.2105195839
 H         -2.2240773731       -1.2008930274        1.1881948403
 H         -0.9855029099       -0.7381669673       -1.5761704718
 H         -1.4925891489       -2.2889601335       -0.9685470493
 H          0.8815175200       -2.1998819641       -0.5884135296
 H          0.1754032362       -1.9268224297        0.9968706060
  17
  -20.742106039999999        2.2571337182612089E-002 !mtd1
 N         -2.0011121841        1.7337957469       -0.6269871835
 C         -1.8781176532        0.8406303982        0.5648858110
 C         -2.1446379185       -0.6306867838        0.2533869375
 C         -1.1037585722       -1.3094929707       -0.6508606505
 C          0.2614368596       -1.5113237511       -0.0096311093
 Br         1.2883139368        0.1014258160        0.1064169325
 H         -2.9355169269        1.6567797089       -1.0535359984
 H         -1.3074964442        1.5042859768       -1.3525197409
 H         -1.8616426351        2.7234942017       -0.3741233479
 H         -2.5796803343        1.1927384274        1.3331013650
 H         -0.8826821636        0.9580320303        1.0069664230
 H         -3.1359772762       -0.7086494769       -0.2094362526
 H         -2.2221917358       -1.1988588708        1.1883492463
 H         -0.9850994518       -0.7351382577       -1.5764453805
 H         -1.4936069990       -2.2862973642       -0.9708565681
 H          0.8804654115       -2.2001605490       -0.5902650272
 H          0.1745690304       -1.9280418736        0.9952087286
  17
  -20.742071280000001        2.1756182769505434E-002 !mtd3
 N         -1.9329492266        1.7150600277        0.8596696603
 C         -1.9217029484        0.8536967892       -0.3615441327
 C         -2.1592921541       -0.6257375158       -0.0654174445
 C         -1.0387664809       -1.3266589502        0.7188295463
 C          0.2594177078       -1.5109473938       -0.0534515432
 Br         1.2728923317        0.1052202900       -0.2259771963
 H         -1.8161494423        2.7111441834        0.6211472657
 H         -1.1756272598        1.4673434502        1.5118007380
 H         -2.8241724033        1.6258303196        1.3685172967
 H         -0.9714923370        0.9843449469       -0.8908169059
 H         -2.6912559235        1.2246709303       -1.0518277881
 H         -2.3248914329       -1.1691588943       -1.0036368659
 H         -3.1028676142       -0.7173075590        0.4862308608
 H         -1.3982196902       -2.3116593998        1.0491220855
 H         -0.8322869836       -0.7761030795        1.6434460054
 H          0.0773625899       -1.9025706753       -1.0556443048
 H          0.9296683086       -2.2134092847        0.4486852969
  17
  -20.739365710000001        1.2421922536486861E-003 !mtd1
 N         -2.1713001912        1.7509742012        0.8949238828
 C         -1.8563596595        0.9495492002       -0.3266122630
 C         -2.1043155625       -0.5481725379       -0.1497455130
 C         -1.0650574996       -1.2800968755        0.7160007267
 C          0.2691907786       -1.5270866003        0.0273454639
 Br         1.3054144286        0.0615704817       -0.2390256605
 H         -2.0178783093        2.7580800166        0.7371910202
 H         -1.5866778917        1.4745121254        1.6962017786
 H         -3.1559491736        1.6323459848        1.1734465635
 H         -0.8152186517        1.1263123981       -0.6176235888
 H         -2.4633947685        1.3360824551       -1.1562768582
 H         -2.1527250327       -1.0386707940       -1.1294948104
 H         -3.1037096274       -0.6790326489        0.2826814774
 H         -1.4806362321       -2.2459384015        1.0364530321
 H         -0.8962051748       -0.7208879626        1.6429408663
 H          0.1324826273       -1.9949709109       -0.9491095090
 H          0.9070529837       -2.1924820060        0.6146528089
  17
  -20.739093590000000        9.3138904055762412E-004 !mtd5
 N         -1.7641858833        1.9526158964       -0.4664805060
 C         -2.5661815743        0.7027652086       -0.2945835339
 C         -1.9061334416       -0.3185892518        0.6443030061
 C         -1.1214823752       -1.4308703462       -0.0694536171
 C          0.0657306204       -0.9515559543       -0.8843613010
 Br         1.3563454628       -0.0580142000        0.2124989603
 H         -1.6755514611        2.4600714763        0.4256688002
 H         -2.2031991076        2.5971114820       -1.1408445467
 H         -0.8115572562        1.7540502566       -0.8015943604
 H         -2.7558431996        0.2456504264       -1.2731588298
 H         -3.5571246696        0.9876967862        0.0851143899
 H         -2.6711721572       -0.7780995793        1.2844133854
 H         -1.2428557920        0.2116611668        1.3361496837
 H         -1.8067422050       -1.9970666520       -0.7142013180
 H         -0.7628549499       -2.1558291206        0.6740134525
 H         -0.2371160993       -0.2665563040       -1.6766042987
 H          0.5899803230       -1.7819299071       -1.3638278925
  17
  -20.739073040000001        9.1135377589828773E-004 !mtd5
 N         -1.6664203921        2.0325122136        0.5039802905
 C         -2.4617618399        0.7823609469        0.7025907882
 C         -1.9922082567       -0.3831769660       -0.1815437825
 C         -1.0601710696       -1.3837554997        0.5201587460
 C          0.2609341406       -0.8028185791        0.9897123033
 Br         1.2854810405       -0.1134147412       -0.4739024378
 H         -0.6610994506        1.8759062642        0.6587759077
 H         -1.9673595396        2.7814366425        1.1454214444
 H         -1.7761949896        2.3912919180       -0.4555648908
 H         -3.5156923452        1.0172989284        0.4992687599
 H         -2.4333340991        0.4880101472        1.7585646130
 H         -1.4933954999        0.0221921518       -1.0684594944
 H         -2.8647863292       -0.9238125755       -0.5720465877
 H         -0.8499809053       -2.2212668936       -0.1590343752
 H         -1.5894578426       -1.8316584926        1.3716760183
 H          0.8852845404       -1.5566384531        1.4756964502
 H          0.1158458420        0.0029245871        1.7096697047
  17
  -20.739042739999999        8.8259625718352483E-004 !mtd5
 N         -1.7694691875        1.9563867818       -0.4646577009
 C         -2.5668713026        0.7030816029       -0.2966263476
 C         -1.9056763492       -0.3160718247        0.6440686833
 C         -1.1217937124       -1.4298298905       -0.0681880602
 C          0.0655260988       -0.9519494056       -0.8837978878
 Br         1.3576013343       -0.0594373220        0.2121856697
 H         -0.8148805616        1.7616398716       -0.7962780330
 H         -1.6862124943        2.4634254343        0.4283577647
 H         -2.2085532902        2.5996858397       -1.1401284744
 H         -2.7507220761        0.2459507947       -1.2763015313
 H         -3.5605546033        0.9833411775        0.0793362321
 H         -2.6698258831       -0.7740107838        1.2863477137
 H         -1.2414392257        0.2157943960        1.3337519375
 H         -1.8074483581       -1.9964900937       -0.7120905999
 H         -0.7634401808       -2.1540189219        0.6761463300
 H         -0.2369108099       -0.2666187095       -1.6759265694
 H          0.5887296252       -1.7830012966       -1.3632399780
  17
  -20.737489920000002        1.7066144537630212E-004 !mtd1
 N         -2.6135679984        2.1602258566        0.9301140931
 C         -2.9555138318        0.9545083752        0.1167620345
 C         -1.7339443995        0.1443289687       -0.3168193970
 C         -1.0165864852       -0.5670533279        0.8356396043
 C          0.1707705743       -1.4000291660        0.3835114444
 Br         1.5387515739       -0.2998181437       -0.3819495489
 H         -3.4553281813        2.7052507193        1.1691527870
 H         -1.9786680439        2.7877833926        0.4159996316
 H         -2.1542195914        1.9070588700        1.8163166469
 H         -3.5211427420        1.2812697418       -0.7659147292
 H         -3.6422929208        0.3168634013        0.6862558425
 H         -1.0276130293        0.8046314838       -0.8312455335
 H         -2.0293719523       -0.6009426182       -1.0651742685
 H         -1.7338034978       -1.2010621206        1.3730591635
 H         -0.6742591543        0.1733743061        1.5679545450
 H         -0.1181147448       -2.1355739998       -0.3691479836
 H          0.6297189550       -1.9434791045        1.2127185215
  17
  -20.737489579999998        1.7060005477933469E-004 !mtd4
 N         -2.7128565267        2.1420580334       -0.6437746701
 C         -2.9480955196        0.9558636598        0.2336252569
 C         -1.6805325263        0.1541112229        0.5287411907
 C         -1.1127115349       -0.5846632799       -0.6880653874
 C          0.1232811909       -1.4087197645       -0.3697283777
 Br         1.5749603011       -0.2931901534        0.1923993790
 H         -2.0192179078        2.7802196043       -0.2282271863
 H         -3.5788142153        2.6827970275       -0.7874627095
 H         -2.3683312579        1.8678950919       -1.5746812454
 H         -3.7000796467        0.3062804976       -0.2302077662
 H         -3.3987653177        1.3036585564        1.1726476868
 H         -1.8784448643       -0.5732932397        1.3252682949
 H         -0.9160946414        0.8250633384        0.9349379738
 H         -0.8662517753        0.1382093878       -1.4744637187
 H         -1.8908700374       -1.2298455131       -1.1163106846
 H          0.4752225602       -1.9716744760       -1.2373527825
 H         -0.0676604342       -2.1264159524        0.4299172218
  17
  -20.737488960000000        1.7048816406766874E-004 !mtd3
 N         -2.7127626570        2.1418943519       -0.6440274570
 C         -2.9480844495        0.9559558417        0.2336970398
 C         -1.6806521224        0.1539860290        0.5287565556
 C         -1.1126598945       -0.5843888466       -0.6882096353
 C          0.1232688307       -1.4085774407       -0.3699659317
 Br         1.5749523035       -0.2932252980        0.1925058212
 H         -2.3688102879        1.8674481651       -1.5749689828
 H         -2.0186259399        2.7799081782       -0.2288763587
 H         -3.5785696929        2.6829515025       -0.7874221321
 H         -3.7002983285        0.3064384819       -0.2298572447
 H         -3.3984990774        1.3040470716        1.1727315293
 H         -1.8787832596       -0.5736840700        1.3249866769
 H         -0.9162273453        0.8247201113        0.9353395346
 H         -0.8660399361        0.1387513527       -1.4743110453
 H         -1.8907710997       -1.2293955307       -1.1168044072
 H          0.4752345969       -1.9713725662       -1.2376841755
 H         -0.0677624379       -2.1264305521        0.4295175071
  17
  -20.737488949999999        1.7048635998010710E-004 !mtd5
 N         -2.6136230258        2.1601452887        0.9302711324
 C         -2.9554692142        0.9545561768        0.1166855560
 C         -1.7338537664        0.1444076298       -0.3168212006
 C         -1.0165846929       -0.5670052655        0.8356725807
 C          0.1707885468       -1.3999924514        0.3836075438
 Br         1.5387372282       -0.2998381423       -0.3819939842
 H         -1.9784447323        2.7875753761        0.4165163915
 H         -2.1546834388        1.9068065930        1.8166372408
 H         -3.4554462359        2.7053384111        1.1690724807
 H         -3.5209471384        1.2814617847       -0.7660348061
 H         -3.6423572912        0.3168465886        0.6859754211
 H         -1.0274821798        0.8047399609       -0.8311546468
 H         -2.0292028485       -0.6008326648       -1.0652381324
 H         -1.7338446904       -1.2010116771        1.3730372735
 H         -0.6742971996        0.1734106043        1.5680187088
 H         -0.1180903145       -2.1356145313       -0.3689792744
 H          0.6297558698       -1.9433585989        1.2128590294
  17
  -20.737488620000001        1.7042683580436010E-004 !mtd6
 N         -2.7130107890        2.1419734741       -0.6439886790
 C         -2.9480570231        0.9559509332        0.2336939968
 C         -1.6804383440        0.1542465421        0.5286938064
 C         -1.1126809761       -0.5844877064       -0.6881661674
 C          0.1232708899       -1.4086341589       -0.3699032230
 Br         1.5749648616       -0.2932581213        0.1924907863
 H         -3.5789458941        2.6825985905       -0.7876294730
 H         -2.3686357377        1.8676332967       -1.5748985458
 H         -2.0192708770        2.7803038585       -0.2286589752
 H         -3.7001437576        0.3062809751       -0.2298515099
 H         -3.3985216996        1.3039248648        1.1727483564
 H         -1.8782622417       -0.5731760191        1.3252262668
 H         -0.9159925866        0.8252211274        0.9348396217
 H         -0.8661924221        0.1384205820       -1.4745228385
 H         -1.8908825740       -1.2295996641       -1.1164382434
 H          0.4752356486       -1.9714565264       -1.2376038847
 H         -0.0677356982       -2.1264583434        0.4296119088
  17
  -20.737394110000000        1.5420703684811420E-004 !mtd2
 N         -2.7260689742        2.1386052972       -0.6554900649
 C         -2.9470279528        0.9611756323        0.2372361569
 C         -1.6740561021        0.1655928363        0.5254309648
 C         -1.1102919797       -0.5721697010       -0.6938687994
 C          0.1218114184       -1.4032490877       -0.3786707452
 Br         1.5763084006       -0.2986174084        0.1975192600
 H         -3.5949455518        2.6761328544       -0.7928933627
 H         -2.3939860306        1.8553136149       -1.5881934059
 H         -2.0279897271        2.7823812183       -0.2561696041
 H         -3.7027771515        0.3048769781       -0.2107732529
 H         -3.3872975966        1.3173456097        1.1780468365
 H         -1.8641675482       -0.5616420415        1.3239969161
 H         -0.9099544906        0.8401846259        0.9262522944
 H         -0.8608514276        0.1520781226       -1.4780884703
 H         -1.8916065145       -1.2124298161       -1.1236903489
 H          0.4740714491       -1.9605293349       -1.2498210200
 H         -0.0742840127       -2.1267790228        0.4144541773
  17
  -20.736723170000001        7.5816113385115188E-005 !mtd4
 N         -3.1723373772        2.3637509235       -0.1828420650
 C         -2.7964337371        1.0311043394        0.3801497349
 C         -1.5489481556        0.4434680594       -0.2727411663
 C         -1.1354354051       -0.9167694259        0.3025960514
 C          0.1290152926       -1.4754038734       -0.3253654736
 Br         1.6259856343       -0.3342201139        0.0261807869
 H         -3.3657607264        2.3005911919       -1.1925473789
 H         -2.4153997447        3.0503524524       -0.0535912906
 H         -4.0162783968        2.7444328597        0.2705381595
 H         -3.6393829277        0.3392510800        0.2638793908
 H         -2.6403769059        1.1283253225        1.4613057916
 H         -0.7192281805        1.1508352589       -0.1686287306
 H         -1.7120223065        0.3519584341       -1.3520194484
 H         -1.9612555732       -1.6301631631        0.1827574660
 H         -0.9864471033       -0.8221829318        1.3854510214
 H          0.0327128090       -1.5682406571       -1.4083802550
 H          0.3813869698       -2.4628815074        0.0679904777
  17
  -20.736719260000001        7.5503069108049197E-005 !mtd5
 N         -3.1473438351        2.3748213076        0.3776971682
 C         -2.8218127015        1.0204231045       -0.1643781590
 C         -1.5184662664        0.4570793039        0.3939585391
 C         -1.1565546332       -0.9252780801       -0.1631622417
 C          0.1603380351       -1.4617209632        0.3690702884
 Br         1.6177342966       -0.3381060305       -0.1602698183
 H         -3.2469716393        2.3519413170        1.4026178261
 H         -4.0302646085        2.7384259405       -0.0108336302
 H         -2.4071033912        3.0547535384        0.1522602199
 H         -2.7658187620        1.0746488420       -1.2582834457
 H         -3.6490879059        0.3349925304        0.0559553100
 H         -1.5817470177        0.4081775086        1.4863883805
 H         -0.7032983877        1.1586026643        0.1865638727
 H         -1.1063641417       -0.8731390164       -1.2579179258
 H         -1.9670615786       -1.6318247576        0.0585175037
 H          0.3776218741       -2.4641413660       -0.0070500716
 H          0.1624528354       -1.5125138630        1.4591270756
  17
  -20.736719180000001        7.5496677621969695E-005 !mtd1
 N         -3.1477991346        2.3742879761        0.3786639256
 C         -2.8209084612        1.0210545012       -0.1656023660
 C         -1.5186308206        0.4567827270        0.3942393910
 C         -1.1565360412       -0.9254213092       -0.1631716726
 C          0.1603783730       -1.4617959523        0.3690334250
 Br         1.6176887831       -0.3380085932       -0.1603050348
 H         -4.0295766210        2.7388091450       -0.0113558467
 H         -2.4069444289        3.0547027518        0.1567727916
 H         -3.2502137074        2.3490412887        1.4033289752
 H         -2.7627686591        1.0774325784       -1.2592785945
 H         -3.6484923108        0.3350442546        0.0517351155
 H         -1.5835728882        0.4072452877        1.4865454080
 H         -0.7028023324        1.1580315426        0.1885469725
 H         -1.1063043728       -0.8730254832       -1.2579065241
 H         -1.9669466545       -1.6321207591        0.0583756730
 H          0.3778896667       -2.4640717859       -0.0073459805
 H          0.1625080587       -1.5128679525        1.4590775701
  17
  -20.736713840000000        7.5071267060162044E-005 !mtd1
 N         -3.1735102570        2.3641997300       -0.1827038187
 C         -2.7983560803        1.0304993595        0.3782205783
 C         -1.5474124744        0.4459996266       -0.2708827611
 C         -1.1357049967       -0.9158753648        0.3019386917
 C          0.1286320675       -1.4746910324       -0.3260763159
 Br         1.6264361198       -0.3349322486        0.0264142135
 H         -2.4184540792        3.0516125503       -0.0475528571
 H         -4.0203240144        2.7421865037        0.2675750215
 H         -3.3617069521        2.3038236140       -1.1936580579
 H         -3.6399435596        0.3379695946        0.2561884698
 H         -2.6472476173        1.1247438501        1.4603413624
 H         -0.7186527437        1.1535801684       -0.1607616245
 H         -1.7056219323        0.3577689597       -1.3511470706
 H         -1.9621463242       -1.6281470442        0.1797789425
 H         -0.9877276262       -0.8236801876        1.3851423967
 H          0.0324632302       -1.5668955467       -1.4091567305
 H          0.3802828034       -2.4625728281        0.0667264320
  17
  -20.736708820000000        7.4673535459789160E-005 !mtd4
 N         -3.1489193241        2.3751267327        0.3781788178
 C         -2.8231512087        1.0203849055       -0.1629558172
 C         -1.5176159316        0.4593595438        0.3925966999
 C         -1.1566896573       -0.9242381339       -0.1620839112
 C          0.1600701533       -1.4605526694        0.3706253492
 Br         1.6182407367       -0.3389581162       -0.1608712570
 H         -2.4105591581        3.0557981684        0.1492281306
 H         -3.2451400746        2.3535443879        1.4035365864
 H         -4.0336403846        2.7369311567       -0.0079375731
 H         -2.7703728800        1.0730490241       -1.2570973543
 H         -3.6489604181        0.3342682958        0.0607268386
 H         -1.5775431602        0.4131347296        1.4853308106
 H         -0.7035215401        1.1608647350        0.1809495544
 H         -1.1070274880       -0.8742314775       -1.2569622906
 H         -1.9674864311       -1.6298728340        0.0614012047
 H          0.3764878374       -2.4638240341       -0.0037129622
 H          0.1624848542       -1.5094652429        1.4607666615
  17
  -20.735969170000001        3.4138710210081179E-005 !mtd6
 N         -2.9019989072        2.2775482358       -0.1426210979
 C         -2.2846048561        1.0102786955       -0.6417846361
 C         -1.7302171904        0.1420741260        0.4833095139
 C         -1.1582619334       -1.2068847926        0.0205584027
 C          0.1097693118       -1.0934737040       -0.8067514392
 Br         1.5172183180       -0.2772738519        0.2029826036
 H         -3.2701725850        2.8525445035       -0.9148194418
 H         -2.2163265446        2.8502327649        0.3701197994
 H         -3.6850495536        2.0837986917        0.4979731187
 H         -1.4912447632        1.2560933995       -1.3566431852
 H         -3.0338204049        0.4470731340       -1.2111460032
 H         -2.5255397375       -0.0257324940        1.2193552457
 H         -0.9568022063        0.7006923632        1.0212191362
 H         -1.9261027157       -1.7517514301       -0.5440031309
 H         -0.9453135769       -1.8330497110        0.8975968679
 H         -0.0415838036       -0.4969142683       -1.7068774244
 H          0.4779942780       -2.0716255588       -1.1253017924
  17
  -20.735967509999998        3.4078794673636602E-005 !mtd1
 N         -2.9030433289        2.2767910968       -0.1428807134
 C         -2.2821477444        1.0113320242       -0.6422966079
 C         -1.7309325607        0.1414466868        0.4830638550
 C         -1.1582432937       -1.2070836643        0.0200122401
 C          0.1098600080       -1.0929235864       -0.8070728472
 Br         1.5171172775       -0.2772524307        0.2033309277
 H         -2.2204644640        2.8484979507        0.3748835375
 H         -3.6891513079        2.0806845690        0.4932412379
 H         -3.2677901885        2.8536192715       -0.9154547884
 H         -1.4863610894        1.2596721095       -1.3535803565
 H         -3.0284831833        0.4484029869       -1.2156884336
 H         -2.5281893363       -0.0271368590        1.2168339466
 H         -0.9587582034        0.6991200426        1.0237383471
 H         -1.9257264437       -1.7521039779       -0.5448914032
 H         -0.9452079968       -1.8334059453        0.8969157582
 H         -0.0414954116       -0.4956397336       -1.7067148431
 H          0.4781314913       -2.0707863590       -1.1264490015
  17
  -20.735963340000001        3.3928747412219122E-005 !mtd1
 N         -2.8999879244        2.2790143788       -0.1427455833
 C         -2.2885014183        1.0085788971       -0.6410963404
 C         -1.7301179396        0.1427081366        0.4838076129
 C         -1.1580725835       -1.2064216721        0.0215985121
 C          0.1093167816       -1.0930379238       -0.8066973047
 Br         1.5175035247       -0.2775687977        0.2026024976
 H         -3.6794522366        2.0892274426        0.5032450982
 H         -3.2717565616        2.8521012191       -0.9147584448
 H         -2.2099471653        2.8520291663        0.3637343736
 H         -1.4984492714        1.2502452963       -1.3609935941
 H         -3.0420609196        0.4453030865       -1.2046320292
 H         -2.5231498611       -0.0245969264        1.2224379025
 H         -0.9556373841        0.7029041979        1.0185233674
 H         -1.9261782101       -1.7520074989       -0.5419060092
 H         -0.9440707933       -1.8318372916        0.8989182041
 H         -0.0424573304       -0.4958963417       -1.7063570662
 H          0.4770294279       -2.0711144212       -1.1260527595
  17
  -20.735956389999998        3.3680135318654695E-005 !mtd1
 N         -2.8864157857        2.2946173016        0.1819853251
 C         -2.2325144481        1.0706918724        0.7394185195
 C         -1.7645945179        0.1066285151       -0.3461988231
 C         -1.1511347426       -1.1980146197        0.1854585193
 C          0.1815184693       -1.0160397991        0.8898252184
 Br         1.4963112014       -0.3011359565       -0.3047009857
 H         -2.2413870310        2.8180020269       -0.4269918629
 H         -3.1963706848        2.9349898767        0.9279657735
 H         -3.7149488722        2.0517355350       -0.3798037076
 H         -2.9361638899        0.5624440523        1.4097004196
 H         -1.3874450443        1.3716781493        1.3687847972
 H         -1.0387412235        0.6146184334       -0.9901198005
 H         -2.6147802896       -0.1229283109       -0.9996147352
 H         -1.0101692803       -1.9007889782       -0.6469318143
 H         -1.8669623895       -1.6873047692        0.8587854490
 H          0.5782499000       -1.9629787015        1.2636498919
 H          0.1046257364       -0.3395885955        1.7415911264
