17
 energy: -20.733387134680 gnorm: 0.000300055588 xtb: 6.5.1 (fef0646)
N            1.05050201902229       -0.03532881470968        0.07140357489239
C            2.54752400048941       -0.03002203928269        0.03416234787899
C            3.05172539089299        0.12568539186906       -1.39376831130176
C            4.58403278884853        0.12838591848385       -1.41640546844790
C            5.11968346472631        0.28180461172100       -2.83229561671454
Br           7.08310255491058        0.27855110850524       -2.80168995743925
H            0.70139745096800       -0.14016382426037        1.03272005786290
H            0.68802694413478       -0.81190937716433       -0.49813732064005
H            0.68660607192245        0.84490293325136       -0.31797541533155
H            2.90613237144958       -0.96733978759088        0.46219158861251
H            2.90468587084617        0.79391620571227        0.65378358016576
H            2.68823462157502        1.06274190913921       -1.82066032537284
H            2.68855536850934       -0.69759284490438       -2.01245465621978
H            4.96101332651667       -0.80427472394948       -0.99323971591679
H            4.96076113836276        0.94889690794777       -0.80332532384821
H            4.81643919354994        1.22663325463096       -3.28087882530951
H            4.81651742327518       -0.54508682939892       -3.47279021287038
