29
 energy: -29.937642384184 gnorm: 0.000481367915 xtb: 6.5.1 (fef0646)
N            0.97711009099084       -0.05561144085812       -0.10751464029992
C            2.46067430183856       -0.05948244441487       -0.09888251311964
C            2.98959250059739        0.15441751990101        1.31492113158178
C            4.51782613923919        0.15787815496377        1.33485536136556
C            5.05837093297589        0.37039401622766        2.74774327066263
C            6.58487448980505        0.37740826248513        2.78200733761193
C            7.12172121586272        0.59000319692314        4.19563838047677
C            8.64813859538267        0.59791056991613        4.23732732880755
C            9.17569036977880        0.81039214291994        5.65164096028264
H            0.61708129368802       -0.20320700434425       -1.05713450848988
H            0.62476213626397        0.84270172431088        0.24402912575438
H            0.61988969233894       -0.80138825427578        0.50129752132024
H            2.82491770799944        0.73391303006109       -0.75123760264108
H            2.81862131331123       -1.01405095411456       -0.48405694928807
H            2.63786550838466       -0.64017423344677        1.97419022013767
H            2.63749104203643        1.10805948115818        1.71020581614773
H            4.89614513485623        0.95178460626924        0.68822489199820
H            4.89679981914499       -0.79073540131214        0.95011437642528
H            4.69427069822151       -0.42318239552051        3.40411725848550
H            4.69216410096579        1.32068126684476        3.14269010475444
H            6.96254185347390        1.17185542513744        2.13380928332998
H            6.96470114846548       -0.57127129234169        2.39514576144196
H            6.75184261669181       -0.20383511030157        4.84919416894988
H            6.74995753329011        1.53984681243968        4.58767605776509
H            9.02468530621298        1.39251549299514        3.58886603929000
H            9.02655553013904       -0.35108310848090        3.85017404069757
H            8.82870117246807        1.76129285204345        6.05043102687374
H           10.26319293048357        0.81292921397386        5.65914631039340
H            8.83096482509267        0.01712787084068        6.31160043928467
