29
 energy: -29.937641925911 gnorm: 0.000454851527 xtb: 6.5.1 (fef0646)
N            1.01579480045528        0.00705167912112       -0.06256787978229
C            2.49932896194200        0.01260731154735       -0.05823522867422
C            3.02831905952789        0.90827782186486        1.05628195456900
C            4.55654015429616        0.91995130800381        1.07304743767831
C            5.09706815698777        1.81439695550492        2.18722444721715
C            6.62355814699554        1.83639963824072        2.21429893097293
C            7.16051502542959        2.73125216340789        3.32907048584421
C            8.68693567207883        2.75743174342652        3.36223119398478
C            9.21467327984807        3.65315175338638        4.47707936644367
H            0.65481470384079       -0.59595028648823       -0.81031999322139
H            0.66105656956043        0.96002850085876       -0.20550250182689
H            0.66214781565431       -0.33605022310100        0.83849206949114
H            2.85896592163264        0.37330051597200       -1.02170241855183
H            2.86125020680664       -1.00526247996068        0.08565482974990
H            2.67552956837430        0.55349903378938        2.02553448806806
H            2.67673686515378        1.93152361005419        0.91770670956140
H            4.93605506474589        1.27985233010111        0.11494627933247
H            4.93433855629945       -0.09377071854752        1.21864710684832
H            4.73202731689225        1.45946395557249        3.15361664817280
H            4.73177436134357        2.83461024394921        2.04980212497961
H            7.00213345198932        2.19626707050741        1.25455484871867
H            7.00245356079827        0.82161788088298        2.35780635194714
H            6.78951972173757        2.37481491053139        4.29314025162606
H            6.78992480395892        3.74969519080774        3.18924781401523
H            9.06457301489047        3.11659029097195        2.40197835777271
H            9.06414507445779        1.74223066188431        3.50633357468634
H            8.86911399792048        4.67587660552078        4.34188352076408
H           10.30218211558227        3.65773074430881        4.48322640997622
H            8.86869405079973        3.30117178788132        5.44664281963641
