36
 energy: -53.395111337597 gnorm: 0.000262723527 xtb: 6.5.1 (fef0646)
N            4.01621983921851       -1.03720206300958        1.15595181239700
C            2.94134791685966       -0.10934913646522        0.73677979207085
C            3.40763147936865        1.32730272453288        0.94329547530319
O            4.56777943001533        1.48038018796357        0.12817477174536
C            5.16965218014290        2.69706645079723        0.03787321682376
C            6.24647842242629        2.78890035884629       -0.86789572501500
C            6.64495986149507        1.69153565048144       -1.68473538939881
C            7.68774376119388        1.79526116493079       -2.54123813227338
C            6.94911315092134        4.01087958741823       -0.97650016464578
C            6.56308961687863        5.12969574841889       -0.19706918648359
C            5.47975344637035        4.99901955938616        0.66912261956744
C            4.79499500369195        3.80399295675964        0.78853941952632
C            7.29427227196825        6.34631860069193       -0.32790484189708
C            8.34392157108832        6.44530938163869       -1.17560439497260
C            8.75636098763880        5.33726406307653       -1.97460722849743
C            9.83618641101076        5.41776109140078       -2.85474220574834
C           10.20826021793409        4.32593356102437       -3.61908800675306
C            9.51600953920542        3.13303476904665       -3.52704153549543
C            8.43021320342494        3.00563771529585       -2.65811385054308
C            8.04376893141721        4.11693191992262       -1.86893871776393
H            3.79301044541849       -2.00571419509429        0.90055421365762
H            4.17156554629458       -0.98579960019602        2.16987089731735
H            4.88421972540469       -0.75271778949263        0.68309332623895
H            2.03580248459234       -0.28946688365231        1.31347634979319
H            2.73294747824728       -0.26063043809529       -0.32234273012768
H            3.65797492498182        1.51676684547458        1.99327014990858
H            2.62344513238369        2.02466135181175        0.63386027082953
H            6.08186597350668        0.77559543986668       -1.61943451681115
H            7.98063786784387        0.96097834365250       -3.16154450457566
H            5.17445191672437        5.84886689412090        1.26149292448088
H            3.96663142699176        3.75403796729043        1.47619609439212
H            6.98809124310772        7.19211853382229        0.27137180154547
H            8.89503630778300        7.37042523653637       -1.26851286625063
H           10.38257979743151        6.34674948257025       -2.93515587618767
H           11.04735295621733        4.40863382307041       -4.29472258505112
H            9.81278953080075        2.28764069615686       -4.13072067710667
