36
 energy: -53.285392026571 gnorm: 0.000473656721 xtb: 6.5.1 (fef0646)
N            4.24538212953864        0.42160447741588       -1.09592352764420
C            2.95034879127183       -0.31165706566570       -1.07217577943319
C            3.28710795690537       -1.73258487003345       -0.59799971013821
O            4.21347479496300       -1.53869595373626        0.44954283966063
C            4.97846058189793       -2.62447646473399        0.89672765981813
C            6.10632503713949       -2.29674218461990        1.66488606861174
C            6.46079916291878       -0.95506675833693        1.99491721872726
C            7.56354395815226       -0.68010367016183        2.73019351758065
C            6.92499390831198       -3.35233141963061        2.13669595036575
C            6.59575960419381       -4.69942855462971        1.84118062288209
C            5.45763774131856       -4.96403479546983        1.08216576426254
C            4.65653929326561       -3.93854963678852        0.61251321977166
C            7.43740704984863       -5.73956870965922        2.33490636913801
C            8.53727369303134       -5.45943288405377        3.07088481228083
C            8.89802726925079       -4.11426112288138        3.37982769804581
C           10.03120152079929       -3.80334289251648        4.13290237218968
C           10.35405045383513       -2.48830907831894        4.41772358277801
C            9.55764695761146       -1.45363572498247        3.96315424868152
C            8.41454104625426       -1.71769182227968        3.20620052093494
C            8.07717203108518       -3.06068272077816        2.90560121201951
H            4.14786289741711        1.42908958155933       -0.94821378245100
H            4.77326485479712        0.25151820591293       -1.95794026789496
H            4.74665894611186       -0.04790615648268       -0.28354192905023
H            2.46602174919781       -0.31401549535133       -2.04708014832551
H            2.29717454657882        0.16813299049782       -0.34222597861698
H            3.73679485762147       -2.32344143144821       -1.40682447025797
H            2.38206961450415       -2.23884719157738       -0.24911725952655
H            5.81266709790444       -0.15028451516315        1.67280121722096
H            7.81684878065119        0.34072068050979        2.97731562738796
H            5.19430590783121       -5.98595079543702        0.85762923501946
H            3.77688616795750       -4.18075010071990        0.03681292552724
H            7.16981995506437       -6.76028703267664        2.10602626034023
H            9.16808255826729       -6.25292882371423        3.44309847435622
H           10.65833062435934       -4.60464747632856        4.49425457426036
H           11.23470784177006       -2.26841299708661        5.00183684115714
H            9.81382061837168       -0.42986759063725        4.19284402032079
