21
 energy: -46.803770494527 gnorm: 0.000365333471 xtb: 6.5.1 (fef0646)
N            0.92423303366753       -1.99663119381236       -1.85970881025156
C            2.41744745734712       -2.01812513871412       -1.87905689489484
C            2.97277119724546       -0.95154750522704       -0.93494470349108
C            4.48068174227455       -0.96962509864336       -0.95102533349746
C            5.19557153615704       -0.20845847285997       -1.86871395786142
F            4.50687123863795        0.51169201313838       -2.76177137892203
C            6.58642996227180       -0.19026349174142       -1.87968253253875
F            7.23910728080940        0.54663859920031       -2.76592724600978
C            7.28704708211527       -0.96184954023662       -0.95109219040271
F            8.60870505160944       -0.95489196427117       -0.94825064439910
C            6.59057467797426       -1.74900203450232       -0.03266864878736
F            7.24730405499801       -2.49728708742953        0.84091551285546
C            5.19941038306651       -1.74474378274786       -0.04831301514905
F            4.51614691111883       -2.50546957144000        0.81418026866223
H            0.53372359006443       -2.70887166680083       -2.49035857509537
H            0.58151156099631       -1.07193449141399       -2.15558337157166
H            0.58156889176667       -2.17825528303823       -0.90595432310643
H            2.75649238347312       -1.82981009912125       -2.89937721194827
H            2.75693035389295       -3.00807193545967       -1.56896267193112
H            2.63620546040108       -1.13979252762033        0.08608958168292
H            2.63683615011224        0.03884027274137       -1.24770385334262
