21
 energy: -46.929899783806 gnorm: 0.000405356462 xtb: 6.5.1 (fef0646)
N            0.91556255072819        0.13529177936260        0.26702003333792
C            2.39382207486864        0.12739189134241        0.27666090806996
C            2.92581147331805        1.48462849271743       -0.20686122445165
C            4.42819926386332        1.49531423838471       -0.20959261492805
C            5.15748061777149        1.11233054303266       -1.33202811523291
F            4.49334369463198        0.72421231767006       -2.42829292450166
C            6.54689938893976        1.12135770758029       -1.34938879033209
F            7.21228410431035        0.75061054286644       -2.45096148493882
C            7.24517009996354        1.51713696595439       -0.21395371055112
F            8.58320281691862        1.53190728229166       -0.21761951191820
C            6.54449323098937        1.89633844053646        0.92571099628419
F            7.20747745544595        2.27703198449924        2.02532733809766
C            5.15519089470779        1.87755511951205        0.91467635263171
F            4.48805551352842        2.23951114742810        2.01805611566447
H            0.54960275980907       -0.76918081790302        0.58897446924647
H            0.56216430009232        0.31034831252647       -0.68213877418409
H            0.55493918475420        0.87166016574954        0.88679396202856
H            2.75736945649708       -0.66272736355712       -0.38069632026629
H            2.74949804120214       -0.06501389434356        1.28911815486578
H            2.58040745830150        2.27853997962949        0.45552802598445
H            2.58152561935820        1.68088516471970       -1.22228288490631
