  27
        -35.93999532
 N         -4.1065638834       -0.6493301822        0.3369512150
 C         -3.2182698096        0.4315250076       -0.1883648530
 C         -1.7340687915        0.2364403521        0.1623753546
 C         -0.8954448768        1.4989814122       -0.1566338867
 C          0.5806682201        1.3189789732        0.2362967896
 C          1.2098374937        0.0754087902       -0.4249034916
 C          2.6086469260       -0.1291966313        0.1076988404
 O          3.6275239661       -0.0597363462       -0.7658011041
 O          2.7450940931       -0.3435227264        1.2874041053
 C          0.3636025022       -1.1873190821       -0.1555106111
 C         -1.1127691985       -0.9927529152       -0.5427971508
 H         -5.0981023484       -0.4572446347        0.1285235767
 H         -4.0207710921       -0.7382935124        1.3604402091
 H         -3.8827350307       -1.5658805335       -0.0767934875
 H         -3.5630347723        1.3931129000        0.2087866079
 H         -3.3298884774        0.5028722955       -1.2752366009
 H         -1.6681860208        0.0618134222        1.2470411770
 H         -1.3249435810        2.3761377278        0.3428852809
 H         -0.9658835009        1.7102559239       -1.2285734945
 H          0.6738085427        1.2134929097        1.3232360828
 H          1.1677431541        2.2109515903       -0.0165423729
 H          1.2867557400        0.2386687382       -1.5096738892
 H          4.4610616691       -0.2084050701       -0.2882078799
 H          0.4471898279       -1.4334996898        0.9092536804
 H          0.7999511797       -2.0450264792       -0.6828471911
 H         -1.6898874761       -1.8960962799       -0.3164089255
 H         -1.1925825711       -0.8585308369       -1.6262908579
