16
 energy: -25.473335891849 gnorm: 0.000305283798 xtb: 6.5.1 (fef0646)
N            1.30814456003637       -0.37788814557547       -0.35453949635086
C            2.75135665066476       -0.11266670878092       -0.28559279692360
C            3.06498026111792        1.16297297703478       -0.99247907540190
C            2.99365603278917        2.43292025876090       -0.51231521300738
C            3.31369474465178        3.40817079260077       -1.48312772654403
C            3.61727634368477        2.86638292033362       -2.68846333094250
S            3.51988469681659        1.15164221290760       -2.66782377238049
Cl          -0.14343826863171        1.69467424577952        1.14899837680888
H            1.08128025503245       -1.26424011380025        0.08315611636193
H            0.99644686655967       -0.39997606332944       -1.32048499637024
H            0.52978157979848        0.75257961854723        0.43221287780081
H            3.34045146087901       -0.92974810758638       -0.72441077152982
H            3.01398468290594       -0.01882858585150        0.77138229632821
H            2.71485898764697        2.66233313187553        0.49935247416202
H            3.31581006981836        4.46561417126746       -1.28985707697127
H            3.89533107622952        3.36333739581619       -3.59651788503969
