  18
        -22.19078124
 N          0.0035817733       -1.7216125912       -0.0221516798
 C          1.1262792216       -0.9690903189       -0.6546029345
 C          1.3780148909        0.3974336670       -0.0006256427
 C          1.8361477427        0.2498389442        1.4502847212
 C          2.3909095478        1.2093854184       -0.8112752492
 Cl        -2.7477334154        0.4441176856        0.0001717097
 H          0.2193112128       -1.9675002408        0.9534576053
 H         -0.2085443423       -2.5953643197       -0.5244184205
 H         -0.8550309555       -1.1450799977       -0.0118177697
 H          0.9140772045       -0.8272914820       -1.7208938948
 H          2.0453949847       -1.5634650206       -0.6159016031
 H          0.4187159007        0.9430926179       -0.0026401917
 H          1.0920947656       -0.2603280584        2.0629887161
 H          2.0288967527        1.2216397591        1.9076277675
 H          2.7603096402       -0.3262407927        1.5055996778
 H          2.0599325769        1.3518656214       -1.8411653566
 H          3.3542880487        0.6997141475       -0.8439170637
 H          2.5560708805        2.1951518338       -0.3738386247
