41
 energy: -42.484460162382 gnorm: 0.000207710965 xtb: 6.5.1 (fef0646)
N            0.80342355565736        0.01241591047944        0.08880404908616
C            2.30290734738746        0.00059772312448        0.08399578996731
C            2.82410021706270       -1.08642876640426       -0.84303459679992
C            4.35550955721895       -1.10516084416029       -0.85601357277699
C            4.89412949129602       -2.19305945490777       -1.78359125613151
C            6.42088420214094       -2.21540426828023       -1.80242402427844
C            6.96054341940231       -3.30191489198431       -2.72956895415212
C            8.48684874347993       -3.32692846355284       -2.75175030350589
C            9.02663847221072       -4.41353371429212       -3.67832295517695
C           10.55290428412068       -4.44065539943962       -3.70178832912465
C           11.09152390343235       -5.52738163273967       -4.62878332871109
C           12.61773530570387       -5.55795665371689       -4.65505299977503
C           13.14577582610729       -6.64479347404868       -5.58307582492732
H            0.43260447122075        0.74170069234165        0.71064050572324
H            0.45170025718162       -0.90246968536709        0.40113932503184
H            0.45621807142443        0.17944505191064       -0.86505102461502
H            2.64920594630766       -0.17097460423699        1.10399309368532
H            2.65392747054094        0.98012101788615       -0.24322474259794
H            2.46671771578956       -0.91399158453010       -1.86024461302725
H            2.46394509223301       -2.06332950436540       -0.51424079919667
H            4.72616605188143       -1.27922703703474        0.15524976454478
H            4.72870362343921       -0.13449364872274       -1.18599641088458
H            4.52556714826747       -2.02247781458713       -2.79716014274749
H            4.52526895205123       -3.16688850645859       -1.45520146338342
H            6.79351217926702       -2.38748626784230       -0.79051210495323
H            6.79365290204500       -1.24319358200443       -2.13150001662417
H            6.58847742777006       -3.13114300498406       -3.74228547421107
H            6.58918952988456       -4.27525664045937       -2.40112110840327
H            8.86040204349075       -3.49787067776319       -1.73956661795704
H            8.85963980264514       -2.35436209255302       -3.08102570750011
H            8.65364461888093       -4.24286099202785       -4.69093434752619
H            8.65395337781044       -5.38649986280336       -3.34957809593654
H           10.92676478646515       -4.61179811775142       -2.68950917114411
H           10.92647630683699       -3.46798402850648       -4.03060957930674
H           10.71788359816518       -5.35605030458602       -5.64116314254400
H           10.71803881811284       -6.50011929763868       -4.29990114129685
H           12.99234336195082       -5.73074869589938       -3.64353212548802
H           12.99218824509022       -4.58597985308202       -4.98431517772385
H           12.79965224490330       -7.62414213293882       -5.25973110552715
H           14.23300286079980       -6.64964598883460       -5.58745111196407
H           12.79936877032395       -6.47904890723793       -6.60092115811997
