45
 energy: -68.502270276292 gnorm: 0.000823784630 xtb: 6.5.1 (fef0646)
N            3.41743991704093       -0.98663462400139        0.57375858077491
C            2.67725300369030        0.26163020793499        0.23816419180057
C            3.59698929207727        1.46387533797430        0.47787116141129
C            4.79671997989681        1.40100019701290       -0.40736636431919
C            5.03832554496244        2.05185618750797       -1.57599081251294
C            6.24551346301556        1.68053222426469       -2.19488681152552
C            6.95199063855944        0.72011640179792       -1.51706497987863
C            8.18545862491156        0.10888384102598       -1.84431033508219
C            8.88547868918130       -0.85189448119644       -1.14737911462123
C           10.08276347471169       -1.24603389302232       -1.75195122201180
C           10.99405989660828       -2.26870832494770       -1.16579392854474
C           10.31505878978706       -0.57540327072023       -2.94648786998637
C           11.39367629798837       -0.68362356850550       -3.86065136833465
C           11.56343672779941        0.04501732482482       -5.02186354568157
C           12.71308531571336       -0.28693998734108       -5.73396206656850
C           13.45950840898481       -1.28415037975674       -5.13881095721139
C           14.67100927312096       -1.90259146757094       -5.56896208689410
C           15.57540222881182       -1.51252132486580       -6.53848333897195
C           15.49222071796039       -0.27427027838807       -7.36586294310859
C           16.64560090865125       -2.42685371351910       -6.65598406561548
C           16.56340838040071       -3.47929289105364       -5.80062578803004
S           15.17045683307698       -3.39597744135921       -4.80973147204355
S           12.71111112888306       -1.80739164977662       -3.66026003993490
S            9.03153884357888        0.54816132704267       -3.30337591140126
S            6.11701676460348        0.28904860666467       -0.03873980040000
H            2.95365564115185       -1.82562862594589        0.21363203893867
H            3.53251579331398       -1.07373834277451        1.58943255312735
H            4.38855154351519       -0.88870904317484        0.16032301677273
H            1.77648682499643        0.32909318469142        0.84834629478622
H            2.39420055913800        0.22104491991830       -0.81433118228571
H            3.89453527652249        1.49662298959810        1.52803437518009
H            3.04088018928982        2.37509826366446        0.25837507601253
H            4.37067970415251        2.78786637045025       -1.98678351171658
H            6.60230948009754        2.10123931214800       -3.11669047137722
H            8.53681849888222       -1.25732200827851       -0.21166315762575
H           10.60508293905155       -2.61334408425175       -0.21116972125662
H           11.98930140603228       -1.85404866400804       -1.00989521467385
H           11.09521419603812       -3.12372977575422       -1.83357023712257
H           10.86129021684079        0.79614564314371       -5.34042133940837
H           12.97119969736932        0.17251780610435       -6.66783695538260
H           15.25256176836020        0.59009618483589       -6.74890405256969
H           14.72535249498593       -0.37502065455200       -8.13402233138053
H           16.44382662607635       -0.09810693827754       -7.86024576133422
H           17.45110179519547       -2.29746920463749       -7.35652981245341
H           17.24020220498324       -4.30346169292639       -5.69126871753787
