  11
        -15.04886613
 N          1.4321545568       -0.5197009992       -0.1001691744
 C          0.6851946267        0.7293950665        0.2183916733
 C         -0.7640530575        0.6149469381       -0.2354533088
 F         -1.2418117016       -0.5754533719        0.1157386863
 H          1.4769738360       -0.6762178262       -1.1173452339
 H          0.9484851868       -1.3304385394        0.3150653007
 H          2.3975677975       -0.4984435573        0.2626098218
 H          1.1823957748        1.5998077078       -0.2364994984
 H          0.7139191716        0.8827486152        1.3081969992
 H         -0.8590687722        0.6881472106       -1.3293599519
 H         -1.4155415616        1.3833075005        0.2110809712
