  11
        -15.04886613
 N          1.4321545568       -0.5197009992       -0.1001691744
 C          0.6851946267        0.7293950665        0.2183916733
 C         -0.7640530575        0.6149469381       -0.2354533088
 F         -1.2418117016       -0.5754533719        0.1157386863
 H          1.4769738360       -0.6762178262       -1.1173452339
 H          0.9484851868       -1.3304385394        0.3150653007
 H          2.3975677975       -0.4984435573        0.2626098218
 H          1.1823957748        1.5998077078       -0.2364994984
 H          0.7139191716        0.8827486152        1.3081969992
 H         -0.8590687722        0.6881472106       -1.3293599519
 H         -1.4155415616        1.3833075005        0.2110809712
  11
        -15.04015629
 N          1.8220275386       -0.2345357624       -0.2519383139
 C          0.6198921195        0.3567488726        0.4103177647
 C         -0.6556982160        0.2715023035       -0.4368634751
 F         -1.6450151317       -0.2754344599        0.2716946873
 H          2.0424240599        0.2531031804       -1.1316894377
 H          1.6733717017       -1.2310422052       -0.4684473735
 H          2.6539179332       -0.1720016699        0.3532744260
 H          0.8287157789        1.3990304392        0.6983495073
 H          0.4347860564       -0.1799357452        1.3547896188
 H         -0.5128195042       -0.3610883800       -1.3249391009
 H         -1.0065659063        1.2562773016       -0.7851370626
  11
        -15.03989343
 N          1.9066860478       -0.0199746515       -0.2854252748
 C          0.6060557866        0.0799215106        0.4458218494
 C         -0.6224594687       -0.0780936244       -0.4424093355
 F         -1.7406722821        0.0201664884        0.2804374770
 H          2.7066628055        0.0937874277        0.3541134304
 H          1.9858688870        0.7080079812       -1.0101705052
 H          2.0080937048       -0.9355933156       -0.7454967236
 H          0.5476746657        1.0493701137        0.9648074954
 H          0.5703240230       -0.6805076170        1.2409688690
 H         -0.6420983576       -1.0570734552       -0.9434426747
 H         -0.6673150473        0.6976842258       -1.2210188750
