  16
        -22.17824584
 N         -0.1157528446       -1.5191295469       -0.9353004213
 C          0.7492312959       -1.8023493354        0.2398925955
 C          1.1369609559       -0.5373184404        0.9886030107
 S          2.0573469271        0.6221654579       -0.0235155085
 C          0.7488237197        1.7513035634       -0.4225193094
 Cl        -2.8300389976        0.3493961805        0.1507877576
 H         -0.4197481177       -2.3811718024       -1.4163667566
 H          0.3843185671       -0.9355344283       -1.6257375674
 H         -0.9645172452       -0.9987505221       -0.6473436592
 H          1.6555789159       -2.3223693075       -0.0948758663
 H          0.2359690826       -2.5014991633        0.9132876817
 H          1.7552425884       -0.7761220556        1.8595831668
 H          0.2466104450       -0.0341472419        1.3747643396
 H          1.1267530642        2.5387578181       -1.0720839599
 H          0.3560516912        2.2111674722        0.4825577973
 H         -0.0633622429        1.2420018145       -0.9366783753
  16
        -22.17815797
 N         -0.2198065258       -1.4463258611        1.0186065622
 C          0.7654959596       -1.8111786962       -0.0329049654
 C          1.2389698225       -0.6023828662       -0.8239857728
 S          2.0500811595        0.6292300740        0.1963360314
 C          0.7128350854        1.7821965624        0.3658637579
 Cl        -2.8067046396        0.3251890320       -0.4659472355
 H         -0.5778227742       -2.2724549387        1.5249032530
 H         -1.0296208830       -0.9514232134        0.6050043343
 H          0.2062518637       -0.8121790769        1.7157739489
 H          0.3243317813       -2.5581726468       -0.7060774667
 H          1.6274165845       -2.3036860116        0.4344304523
 H          0.3985775490       -0.1305261612       -1.3397857628
 H          1.9469670836       -0.9017442907       -1.6031560710
 H          0.4259601897        2.1754927421       -0.6077718207
 H          1.0213575931        2.6146174115        0.9957316114
 H         -0.1547485266        1.3098693507        0.8215097806
  16
        -22.17815554
 N         -0.1157198692       -1.5223043494       -0.9312047128
 C          0.7528326800       -1.8059825423        0.2412853963
 C          1.1427705543       -0.5414520822        0.9897190194
 S          2.0541794531        0.6220472010       -0.0257971275
 C          0.7401578653        1.7478314452       -0.4161098593
 Cl        -2.8272760251        0.3558381578        0.1469719697
 H          0.3818900329       -0.9407114948       -1.6221650072
 H         -0.9621502012       -1.0014183513       -0.6413796710
 H         -0.4234149412       -2.3868485127       -1.4122338248
 H          1.6581424021       -2.3256784553       -0.0967838605
 H          0.2419584009       -2.5057398015        0.9158469845
 H          1.7671676235       -0.7806479988        1.8562260028
 H          0.2539780853       -0.0407695399        1.3826401397
 H          1.1123714391        2.5383041914       -1.0652921573
 H          0.3497009214        2.2039999983        0.4918561109
 H         -0.0725194666        1.2370599626       -0.9280071097
  16
        -22.17804069
 N         -0.1164425699       -1.5183976803       -0.9334200557
 C          0.7499510924       -1.8025080525        0.2405540093
 C          1.1399553199       -0.5380532989        0.9890675144
 S          2.0579677064        0.6220345615       -0.0244089471
 C          0.7484062778        1.7510002733       -0.4204834596
 Cl        -2.8316514984        0.3497482385        0.1493740195
 H         -0.9617825772       -0.9988045402       -0.6452472050
 H         -0.4229666577       -2.3818661503       -1.4146748208
 H          0.3837809396       -0.9347769501       -1.6254313527
 H          1.6552952101       -2.3232366643       -0.0958032797
 H          0.2372216071       -2.5014402073        0.9145740070
 H          1.7605016479       -0.7776950999        1.8582127233
 H          0.2508320828       -0.0348764443        1.3780317659
 H          0.3563139015        2.2094935716        0.4856010694
 H         -0.0640736039        1.2418715193       -0.9343372910
 H          1.1250464430        2.5395357050       -1.0694808917
  16
        -22.17583684
 N         -0.1734355758       -1.7562744426       -0.6863085478
 C          0.7594989414       -1.6532634819        0.4671044912
 C          1.0426270515       -0.2051375204        0.8295116944
 S          1.8346920184        0.6877247164       -0.5015758929
 C          1.8776608535        2.2808044459        0.2751435828
 Cl        -3.0723806606       -0.0249746662        0.1149404281
 H         -0.3876355110       -2.7355618369       -0.9355420205
 H          0.2274520582       -1.2970695243       -1.5204789077
 H         -1.0676046075       -1.2762427339       -0.4761872240
 H          1.7004414456       -2.1622430192        0.2233347519
 H          0.3415480797       -2.1908152259        1.3285316174
 H          1.6821440069       -0.1359795792        1.7143881008
 H          0.1095219141        0.3099524698        1.0721501087
 H          0.8688594374        2.6205580184        0.5027139271
 H          2.3449216439        3.0050680133       -0.3896166808
 H          2.4512372554        2.2382575254        1.1992810734
  16
        -22.17575089
 N         -0.1808725548       -1.7593454347        0.6644631578
 C          0.7614081104       -1.6430307047       -0.4800523792
 C          1.0496862708       -0.1908867739       -0.8217317719
 S          1.8350379625        0.6827655864        0.5259455110
 C          1.8920536929        2.2844558627       -0.2318835232
 Cl        -3.0792007551       -0.0307377705       -0.1428867570
 H         -0.3966073929       -2.7414944388        0.9007612987
 H         -1.0726981676       -1.2781742587        0.4525757162
 H          0.2132971994       -1.3089974497        1.5080031920
 H          0.3496149905       -2.1690070356       -1.3515829942
 H          1.6996203664       -2.1564463519       -0.2352456462
 H          0.1192714204        0.3293113135       -1.0636593890
 H          1.6951112235       -0.1116003017       -1.7014911004
 H          2.3573900575        2.9987099705        0.4449616068
 H          0.8867515181        2.6316879229       -0.4636449478
 H          2.4729867447        2.2497933906       -1.1517577642
  16
        -22.17567063
 N         -0.1752758647       -1.7513337395       -0.6881540058
 C          0.7545971851       -1.6456989834        0.4674668191
 C          1.0381917817       -0.1968422815        0.8266232772
 S          1.8401823720        0.6897986415       -0.5026341567
 C          1.8958673233        2.2820682551        0.2748914703
 Cl        -3.0806268813       -0.0360375009        0.1179496220
 H         -1.0682626817       -1.2748130419       -0.4805105503
 H         -0.3873419958       -2.7330927868       -0.9377857529
 H          0.2268205142       -1.2911221016       -1.5225801545
 H          1.6957878132       -2.1560683676        0.2276249498
 H          0.3338999564       -2.1805668696        1.3292301035
 H          1.6725770600       -0.1260391187        1.7150500093
 H          0.1047386814        0.3210048563        1.0619393288
 H          2.3716215492        3.0022753331       -0.3882883048
 H          2.4667193380        2.2338272369        1.2004570477
 H          0.8896246326        2.6309672024        0.5000049367
  16
        -22.17558330
 N         -0.1803877289       -1.7631553373        0.6613745853
 C          0.7632217136       -1.6435473495       -0.4816874825
 C          1.0488055767       -0.1904875977       -0.8218098206
 S          1.8291583637        0.6844586870        0.5279323214
 C          1.8961725291        2.2835642058       -0.2344181632
 Cl        -3.0765340847       -0.0298283357       -0.1413236501
 H         -1.0707046254       -1.2834472249        0.4496323313
 H          0.2117584519       -1.3142300323        1.5052359659
 H         -0.3958325442       -2.7489702826        0.8964126010
 H          0.3538447885       -2.1696060391       -1.3543016222
 H          1.7021844784       -2.1551256956       -0.2359244317
 H          0.1177765087        0.3277465010       -1.0655978013
 H          1.6960323063       -0.1093380312       -1.7000697062
 H          0.8936628482        2.6326912911       -0.4752893561
 H          2.4842465189        2.2443679088       -1.1495765102
 H          2.3580527363        2.9988210398        0.4437601089
  16
        -22.17291537
 N         -0.3558623483       -0.7823091747       -0.4429167555
 C          0.3273282531       -0.5223913882        0.8515868923
 C          1.8397108491       -0.5774525092        0.7108633307
 S          2.4909717202        0.5530411396       -0.5114628313
 C          2.0895870123        2.0831162079        0.2867947785
 Cl        -3.8084532208       -0.5796042546       -0.1011536046
 H         -0.1140123923       -1.7168593139       -0.8066006619
 H         -0.0618954266       -0.0940286013       -1.1550731407
 H         -1.3890045866       -0.7308490137       -0.3594304495
 H         -0.0144704886       -1.2484007363        1.6011358569
 H          0.0211526247        0.4581380631        1.2352273676
 H          2.1473878060       -1.5819681500        0.4078626466
 H          2.3371423333       -0.3765458422        1.6642698148
 H          2.4690946926        2.0938876223        1.3069319810
 H          1.0124363898        2.2356663221        0.3081734816
 H          2.5401396601        2.9112492629       -0.2574452803
  16
        -22.17282661
 N         -0.4439666330       -0.5255953007        0.6747672353
 C          0.4397985690       -0.8364884952       -0.4794959511
 C          1.9094618787       -0.7681119440       -0.0977627753
 S          2.4010523894        0.8037585762        0.5978652557
 C          2.1627517437        1.8244579110       -0.8306176564
 Cl        -3.7938068726       -0.6031720849       -0.2461119613
 H         -0.2954158386       -1.1962174417        1.4443960939
 H         -1.4481964977       -0.5519816463        0.4189109851
 H         -0.2380562703        0.4163881500        1.0487982717
 H          0.2311958070       -0.1365667127       -1.2974638901
 H          0.1926991582       -1.8301029604       -0.8761377282
 H          2.5549467219       -0.9812228171       -0.9548896119
 H          2.1330947151       -1.5299066454        0.6540762407
 H          2.6907366437        1.4117594644       -1.6883650392
 H          2.5478101378        2.8240434191       -0.6368238659
 H          1.1051654365        1.9080740597       -1.0725289755
  16
        -22.17273650
 N         -0.3539642173       -0.7822015715       -0.4417895141
 C          0.3307795607       -0.5313354525        0.8536844676
 C          1.8430865063       -0.5824728446        0.7101778282
 S          2.4899377818        0.5525513775       -0.5103136683
 C          2.0765636364        2.0799467426        0.2868297632
 Cl        -3.8055888808       -0.5721929530       -0.1031975954
 H         -1.3838369380       -0.7307823786       -0.3570591706
 H         -0.1124459144       -1.7160841000       -0.8129780437
 H         -0.0601168385       -0.0885605301       -1.1504139497
 H         -0.0085168297       -1.2637534461        1.5981185294
 H          0.0234683017        0.4455958383        1.2455400105
 H          2.1527232361       -1.5854781847        0.4041701465
 H          2.3416395426       -0.3827030448        1.6632433870
 H          2.5212871594        2.9111264975       -0.2575537419
 H          2.4550947883        2.0940829485        1.3072891566
 H          0.9982724389        2.2244177814        0.3071299588
  16
        -22.17166524
 N         -0.4600043019       -2.0485183390       -0.4750276941
 C          0.7010210694       -1.1316908030       -0.6499044548
 C          0.9285221887       -0.2609777037        0.5741064022
 S          2.3470922875        0.8227494272        0.4439052712
 C          1.6962306937        1.9800614106       -0.7300672695
 Cl        -3.2292173114       -0.0515347475        0.1835203755
 H         -0.3151237586       -2.6811485130        0.3268426367
 H         -0.6280936863       -2.6333698198       -1.3117593386
 H         -1.3241478768       -1.5079424433       -0.2878161117
 H          0.5426103355       -0.5032789899       -1.5342199497
 H          1.6070294478       -1.7125752463       -0.8624112834
 H          1.0767881061       -0.8913275559        1.4550266873
 H          0.0439662560        0.3459686747        0.7838164200
 H          2.4005593736        2.7982897593       -0.8691953972
 H          0.7531824077        2.3933606297       -0.3769500222
 H          1.5332124517        1.5023721662       -1.6939379474
  16
        -22.17155505
 N         -0.4632565977       -2.0903526119        0.2094348122
 C          0.6945120816       -1.2025490999        0.5104423593
 C          0.9327089853       -0.1841204561       -0.5914324154
 S          2.3498135785        0.8732266125       -0.3130572675
 C          1.6939784377        1.8639919465        1.0021491960
 Cl        -3.2281874887       -0.0278779410       -0.2277170988
 H         -0.3096111907       -2.6161791979       -0.6646913188
 H         -1.3253876134       -1.5312922928        0.0835461691
 H         -0.6387089628       -2.7773005081        0.9644773236
 H          1.5993328971       -1.8052961775        0.6571195948
 H          0.5260236811       -0.6909024863        1.4653060257
 H          0.0499607967        0.4453773199       -0.7302097397
 H          1.0884949391       -0.6979691030       -1.5438594652
 H          2.3938449517        2.6610055825        1.2468534987
 H          1.5345843050        1.2636263772        1.8954337782
 H          0.7483742678        2.3145958706        0.7061285961
  16
        -22.17141601
 N         -0.4637302908       -2.0858150695        0.2101739629
 C          0.6949328149       -1.1988379486        0.5100774922
 C          0.9305513791       -0.1780152242       -0.5901544339
 S          2.3526750857        0.8738435281       -0.3166321618
 C          1.7074889868        1.8631041211        1.0048037652
 Cl        -3.2357901338       -0.0341083179       -0.2264281542
 H         -1.3243666982       -1.5277246827        0.0862016676
 H         -0.6381155387       -2.7725694911        0.9640887475
 H         -0.3111132988       -2.6125643185       -0.6672607083
 H          1.5999208127       -1.8023216414        0.6526036859
 H          0.5295889570       -0.6894190823        1.4666793080
 H          0.0491134551        0.4546531108       -0.7226402731
 H          1.0799648934       -0.6897750393       -1.5447118992
 H          0.7618489436        2.3180740665        0.7156231009
 H          2.4117251975        2.6567697446        1.2479041001
 H          1.5510220816        1.2606154804        1.8972032448
  16
        -22.17120805
 N         -0.1447582714       -1.2352083291       -1.0605823785
 C          0.8673438261       -1.4011616249        0.0155704759
 C          0.9748705142       -0.1557608366        0.8804968801
 S          1.3390229036        1.3316578845       -0.0416011404
 C          2.9862389731        0.9367136650       -0.5609163684
 Cl        -3.1596909015       -0.3601635532        0.4212120051
 H         -0.2489832418       -2.0836261487       -1.6406062965
 H          0.1112111326       -0.4531690030       -1.6853422612
 H         -1.0713737096       -1.0076983464       -0.6561933901
 H          1.8408456160       -1.6355972987       -0.4313767548
 H          0.6109769433       -2.2729272059        0.6319889097
 H          1.7345255320       -0.2736291056        1.6587596305
 H          0.0275435278        0.0185616539        1.3981248108
 H          3.6014417046        0.6615957280        0.2938706049
 H          3.4365377286        1.8009754390       -1.0459683075
 H          2.9788842275        0.1125120381       -1.2712835027
  16
        -22.17112535
 N         -0.0280314075       -1.4029992696        0.8401035317
 C          0.8476440621       -1.3719564147       -0.3608384077
 C          0.8640660855        0.0040122193       -1.0067681029
 S          1.3432673098        1.3167342150        0.1077444904
 C          3.0369101250        0.8606092203        0.3573193093
 Cl        -3.1880012000       -0.3108354856       -0.0942445592
 H          0.3083614457       -0.7388542882        1.5536013440
 H         -0.0720146967       -2.3410734774        1.2752090368
 H         -0.9934568805       -1.1180387878        0.5938176647
 H          0.5114583857       -2.1283657057       -1.0823396882
 H          1.8648646561       -1.6689466110       -0.0790240536
 H         -0.1352755022        0.2524659538       -1.3745947305
 H          1.5278241863        0.0299936442       -1.8759562428
 H          3.1070089836       -0.0758225007        0.9069945194
 H          3.5453602374        1.6325475823        0.9322799296
 H          3.5475032886        0.7493492691       -0.5975367094
  16
        -22.17108557
 N         -0.0188632779       -1.4222840853        0.8347800560
 C          0.8505356271       -1.3774143370       -0.3702794755
 C          0.8537636860        0.0027697413       -1.0073764840
 S          1.3272665874        1.3116617179        0.1140748651
 C          3.0271848486        0.8710880525        0.3483598842
 Cl        -3.1710946215       -0.2992524690       -0.0892976412
 H         -0.0596602368       -2.3631045360        1.2594160945
 H         -0.9845784021       -1.1363092093        0.5958333408
 H          0.3206583316       -0.7627650090        1.5555763421
 H          0.5160921998       -2.1314107903       -1.0951272841
 H          1.8712044642       -1.6690380627       -0.0954090868
 H         -0.1490630391        0.2458777406       -1.3692559168
 H          1.5136007649        0.0395757722       -1.8791422821
 H          3.5331081977        0.7749914400       -0.6106102681
 H          3.1104893411       -0.0700950193        0.8879871933
 H          3.5308538409        1.6424207880        0.9283193743
  16
        -22.17098384
 N         -0.0184717595       -1.4238959666        0.8330213091
 C          0.8494075151       -1.3763413755       -0.3730278271
 C          0.8514466312        0.0051202553       -1.0073296159
 S          1.3273674917        1.3117322920        0.1157808933
 C          3.0275234588        0.8701638009        0.3460692717
 Cl        -3.1701589875       -0.2994162657       -0.0878900571
 H         -0.9827619886       -1.1386150475        0.5961789605
 H          0.3211798397       -0.7659158760        1.5535425796
 H         -0.0580899168       -2.3681688701        1.2577398631
 H          0.5141560875       -2.1289651540       -1.0989264993
 H          1.8704850771       -1.6683329960       -0.1000904764
 H         -0.1520860382        0.2490201130       -1.3667106739
 H          1.5094738743        0.0436077448       -1.8803900627
 H          3.1114361084       -0.0714430068        0.8848672590
 H          3.5329801493        1.6406876576        0.9255504000
 H          3.5313910878        0.7744025290       -0.6140210854
  16
        -22.17095756
 N         -0.0127932106       -1.4334019773        0.8420206710
 C          0.8610883805       -1.3913701461       -0.3599370506
 C          0.8559413472       -0.0162855440       -1.0080480987
 S          1.3052560226        1.3063530070        0.1071724412
 C          3.0083087095        0.8876130145        0.3578371500
 Cl        -3.1516017319       -0.2832191288       -0.0947660536
 H         -0.0544357594       -2.3728470233        1.2696290840
 H         -0.9776143683       -1.1484422034        0.5984117283
 H          0.3232407746       -0.7711327054        1.5619444103
 H          0.5355034347       -2.1535971577       -1.0802043943
 H          1.8828545791       -1.6728674148       -0.0785546199
 H         -0.1460065377        0.2135667733       -1.3808912072
 H          1.5232192229        0.0204692289       -1.8741336311
 H          3.4979410269        1.6682954585        0.9373082351
 H          3.5231447604        0.7920063827       -0.5964682368
 H          3.0982038754       -0.0494523121        0.9036483051
  16
        -22.17087963
 N         -0.0203246039       -1.4168753966        0.8426868103
 C          0.8537867657       -1.3813548621       -0.3592604764
 C          0.8589974913       -0.0064383006       -1.0076404626
 S          1.3245677945        1.3124941197        0.1053431423
 C          3.0211376779        0.8706811316        0.3606582577
 Cl        -3.1688751757       -0.2969003411       -0.0952119155
 H         -0.9832207637       -1.1331901515        0.5983778572
 H          0.3160966035       -0.7524022470        1.5587494438
 H         -0.0629236838       -2.3571163786        1.2759748827
 H          0.5225945504       -2.1414149404       -1.0792483706
 H          1.8734730753       -1.6702910895       -0.0779533804
 H         -0.1419982328        0.2324919149       -1.3772922219
 H          1.5237860256        0.0239089356       -1.8758914204
 H          3.0967973693       -0.0626713703        0.9148390659
 H          3.5220657083        1.6490428730        0.9335550070
 H          3.5350679932        0.7589462919       -0.5923467031
  16
        -22.17019918
 N         -0.5827319565       -0.4248995592       -0.5868592852
 C          0.2989025193       -0.7099889234        0.5763209940
 C          1.7459160133       -0.3488906932        0.2864163643
 S          1.9599817933        1.3975019775       -0.0314343322
 C          3.7019021616        1.3670437840       -0.3600174486
 Cl        -3.9007232836       -1.1892370625        0.1215253655
 H         -0.2927337308       -0.9698932527       -1.4134159109
 H         -0.5297942938        0.5736261526       -0.8466294307
 H         -1.5767675994       -0.6492729290       -0.3906967593
 H          0.2131034100       -1.7692176404        0.8528041162
 H         -0.0519164734       -0.1434107433        1.4480030817
 H          2.1019942186       -0.8975089439       -0.5893182622
 H          2.3973381541       -0.6256303160        1.1206440866
 H          3.9175002618        0.7243041034       -1.2116610023
 H          4.2461491362        0.9965998199        0.5068422940
 H          4.0543567153        2.3716638121       -0.5866634671
  16
        -22.17003818
 N         -0.5786276615       -0.4360826870       -0.5901694682
 C          0.3010248651       -0.7157675170        0.5758217647
 C          1.7474768260       -0.3501383446        0.2887436492
 S          1.9555030185        1.3964217811       -0.0319199346
 C          3.6978089041        1.3721926515       -0.3588365245
 Cl        -3.8985815497       -1.1824624000        0.1222936186
 H         -1.5698820460       -0.6591840388       -0.3952205424
 H         -0.2863001450       -0.9851941355       -1.4156633444
 H         -0.5258092533        0.5625057876       -0.8541262960
 H          0.2181468518       -1.7746953449        0.8543634226
 H         -0.0538330805       -0.1484816382        1.4454183022
 H          2.1078360810       -0.8992251328       -0.5849368814
 H          2.3977912408       -0.6227114792        1.1252075147
 H          4.0466769938        2.3779279614       -0.5860457509
 H          3.9170357266        0.7294012947       -1.2095098472
 H          4.2425458037        1.0047603093        0.5089889080
  16
        -22.16938913
 N         -0.4741189150       -2.0897180266       -0.5749331518
 C          0.6957237794       -1.4404909057        0.0801158349
 C          0.8677961921        0.0038678108       -0.3565577014
 S          2.2639263044        0.8050334462        0.4254490164
 C          2.0770849103        2.3968428667       -0.3313791522
 Cl        -3.2913463587       -0.1885967440        0.1688307222
 H         -0.6057239913       -3.0652320873       -0.2629981235
 H         -0.3653599685       -2.0994596575       -1.6027705124
 H         -1.3451221132       -1.5694221597       -0.3635682001
 H          1.6098843957       -2.0050183134       -0.1420048479
 H          0.5836967719       -1.4833454891        1.1707153466
 H         -0.0332204681        0.5781179428       -0.1257673717
 H          1.0003382417        0.0583531063       -1.4401915307
 H          1.1108118309        2.8283378693       -0.0763357028
 H          2.1505982848        2.3142660276       -1.4142792567
 H          2.8592337449        3.0680697749        0.0186878209
  16
        -22.16930882
 N         -0.4731003749       -2.0912571958       -0.5785134784
 C          0.6946420568       -1.4409892854        0.0792065161
 C          0.8670917942        0.0031266293       -0.3581375897
 S          2.2589502226        0.8067074394        0.4290049501
 C          2.0778040150        2.3952876470       -0.3361618338
 Cl        -3.2871096594       -0.1880391321        0.1705134257
 H         -0.3625206830       -2.1000159316       -1.6041642377
 H         -1.3439154738       -1.5723601232       -0.3685397568
 H         -0.6047827514       -3.0701196032       -0.2667108985
 H          1.6096996404       -2.0052447941       -0.1398614776
 H          0.5795030639       -1.4830677829        1.1695098876
 H         -0.0354378412        0.5767090028       -0.1316326771
 H          1.0040125595        0.0566152473       -1.4412725045
 H          2.8568067491        3.0683358402        0.0173854839
 H          1.1092967161        2.8275280447       -0.0910540656
 H          2.1602920131        2.3081201945       -1.4180575471
  16
        -22.16919387
 N         -0.4747057559       -2.0824892876       -0.5798900418
 C          0.6936456794       -1.4350323679        0.0795327245
 C          0.8711835018        0.0083949735       -0.3580391599
 S          2.2657913483        0.8068986973        0.4294595152
 C          2.0935002599        2.3949770366       -0.3387714480
 Cl        -3.3005454873       -0.1967789710        0.1717657752
 H         -0.3635043446       -2.0898327420       -1.6054827720
 H         -1.3452633210       -1.5632786548       -0.3695522360
 H         -0.6077611490       -3.0616822990       -0.2697209306
 H          1.6074733678       -2.0018948594       -0.1379643199
 H          0.5767233065       -1.4765137772        1.1696664749
 H         -0.0293717481        0.5852661304       -0.1320437044
 H          1.0087920234        0.0611167120       -1.4411259502
 H          2.8756768354        3.0646409244        0.0142038206
 H          1.1270257661        2.8326431257       -0.0952872889
 H          2.1765360087        2.3054615123       -1.4204335240
