25
 energy: -33.066661191669 gnorm: 0.000210223826 xtb: 6.5.1 (fef0646)
N            2.96826854330199        0.28087550119629       -2.87701727853678
C            2.52310169637154        1.44120506768168       -2.06806760552626
C            3.04790960425778        1.31153902851595       -0.63863444061929
C            4.55318201173151        1.37091747931126       -0.59566994282869
C            5.21496935584673        2.57866504122523       -0.76809482488523
C            6.59693259347787        2.65408007568467       -0.74511753257419
C            7.34846285026629        1.50159259011211       -0.54162176529768
O            8.71345931828045        1.45128223115007       -0.49034069200086
C            9.44228944680702        2.65052143762383       -0.64657900065304
C            6.69212688437549        0.28262824809813       -0.36899167361552
C            5.31423231062510        0.22219517838597       -0.39937942122094
H            2.69875723130956        0.39089864710940       -3.86070394396761
H            2.55510682250425       -0.58610100237207       -2.51401910478134
H            3.99096237127057        0.19797182600780       -2.81566013507167
H            1.43469646108493        1.48052967927393       -2.06275384353843
H            2.90890202864055        2.35592169639590       -2.51699195261771
H            2.70456695102872        0.37744569190566       -0.19497747702283
H            2.63970240830797        2.12975282999087       -0.04627800627326
H            4.64935878600930        3.48717744908625       -0.91107974282192
H            7.07631886165778        3.61109714359557       -0.87430738539349
H           10.48919968176150        2.36742178294698       -0.56109163672238
H            9.19603615878539        3.37103848712700        0.13845321798529
H            9.26509898781625        3.09704813469089       -1.62895986421096
H            7.29116015258954       -0.59902214701542       -0.20434316972693
H            4.83283848189163       -0.73092209772789       -0.24068277807768
