  35
        -45.89036700
 N         -5.3816818476       -0.5994417066       -1.5507087972
 C         -5.5128111116        0.5862460278       -0.6565226719
 C         -4.8441733756        0.3702343173        0.6993952907
 C         -3.3640831216        0.1527115460        0.5929209877
 C         -2.5015443288        1.2302085926        0.4155579524
 C         -1.1456201852        1.0423157870        0.2949308607
 C         -0.5871115258       -0.2491919149        0.3421109273
 C          0.8138433676       -0.4946739357        0.2252623110
 C          1.7824016541        0.4607586282        0.0710442824
 C          3.1829958488        0.2145593171       -0.0498516800
 C          3.7363564781       -1.0808350052       -0.0351200841
 C          5.0921458955       -1.2698894565       -0.1564837604
 C          5.9405111458       -0.1846399717       -0.2954591712
 C          5.4226687476        1.0989788460       -0.3126088633
 C          4.0689917939        1.3003281328       -0.1925597477
 C         -1.4705523687       -1.3313559885        0.5133985434
 C         -2.8245038376       -1.1301449438        0.6339348401
 H         -5.8301593580       -0.4424309852       -2.4663244694
 H         -5.8206580550       -1.4313551180       -1.1286664762
 H         -4.3874165812       -0.8259356582       -1.7235931298
 H         -6.5757835955        0.8228617341       -0.5253268750
 H         -5.0714888704        1.4598669844       -1.1497367167
 H         -5.2997086537       -0.4907601032        1.1985206639
 H         -5.0318977130        1.2235535173        1.3599502491
 H         -2.9114749184        2.2251096625        0.3774530693
 H         -0.5065114848        1.8963610346        0.1628729866
 H          1.1191058803       -1.5240642088        0.2678862004
 H          1.4783059152        1.4911031434        0.0392926643
 H          3.0938757170       -1.9363171593        0.0709274598
 H          5.4993533002       -2.2680387811       -0.1437917978
 H          7.0032166480       -0.3390360728       -0.3901687958
 H          6.0851713998        1.9425985186       -0.4203872949
 H          3.6725356541        2.3013947539       -0.2060569214
 H         -1.0713925173       -2.3303265257        0.5539624894
 H         -3.4828368784       -1.9720163287        0.7676189327
  35
        -45.89028702
 N         -5.2084953388        0.4876966321       -1.7680167567
 C         -5.6055252088       -0.2313661118       -0.5239143909
 C         -4.8569892987        0.2771548814        0.7062327660
 C         -3.3727377644        0.0855662614        0.6078021559
 C         -2.5333388332        1.1474547424        0.2833896329
 C         -1.1748893891        0.9708001813        0.1746795391
 C         -0.5901620704       -0.2927712422        0.3839388700
 C          0.8149947883       -0.5238664963        0.2907730973
 C          1.7633235049        0.4228114401        0.0095443812
 C          3.1687396040        0.1919910645       -0.0816697962
 C          3.7494346366       -1.0780160659        0.1039871079
 C          5.1090746163       -1.2526621343        0.0067671715
 C          5.9343460602       -0.1777108160       -0.2764986088
 C          5.3893724756        1.0810115519       -0.4631093218
 C          4.0316135852        1.2677668727       -0.3686592075
 C         -1.4505186682       -1.3602915133        0.7016544969
 C         -2.8071773731       -1.1703817861        0.8087245036
 H         -5.4075785759        1.4961822375       -1.6918023504
 H         -5.7127805821        0.1327938673       -2.5952422782
 H         -4.1956123180        0.3832597487       -1.9496817050
 H         -5.4178607508       -1.3033578385       -0.6526427582
 H         -6.6886419219       -0.1333742589       -0.3801335301
 H         -5.2210438809       -0.2225958896        1.6107308030
 H         -5.0740574678        1.3396191811        0.8524320853
 H         -2.9617122921        2.1218793923        0.1216441497
 H         -0.5536702970        1.8125208589       -0.0720198355
 H          1.1413167422       -1.5328279885        0.4646632653
 H          1.4378464269        1.4337886510       -0.1551865378
 H          3.1253176622       -1.9253074947        0.3241758245
 H          5.5373572260       -2.2314153410        0.1513800900
 H          7.0002026063       -0.3207571418       -0.3515216339
 H          6.0338661144        1.9169107662       -0.6824440163
 H          3.6140268367        2.2496238724       -0.5139948754
 H         -1.0316399930       -2.3382728233        0.8661980547
 H         -3.4486925043       -1.9994583434        1.0562346867
  35
        -45.88612825
 N         -6.8809255397        0.2297623086       -0.8617743848
 C         -5.3984676214        0.0665403285       -0.9141401563
 C         -4.7418582888        0.2333324673        0.4520282321
 C         -3.2529400701        0.0509405513        0.4136788530
 C         -2.4064540508        1.1365450429        0.2088095113
 C         -1.0436489443        0.9716598718        0.1444001108
 C         -0.4617881782       -0.3035328089        0.2775695378
 C          0.9465435638       -0.5255882872        0.2165814210
 C          1.9006559868        0.4393966409        0.0347419497
 C          3.3085521015        0.2155126338       -0.0321757313
 C          3.8861175969       -1.0643894659        0.0808377584
 C          5.2481514445       -1.2322803997        0.0084061241
 C          6.0789709562       -0.1405916031       -0.1777140695
 C          5.5371534567        1.1281259523       -0.2916347596
 C          4.1770533740        1.3082960295       -0.2208547201
 C         -1.3290322958       -1.3941861385        0.4755513840
 C         -2.6900435596       -1.2161638969        0.5387975606
 H         -7.3140064178        0.1149370110       -1.7907218927
 H         -7.1392514527        1.1639822845       -0.5111457663
 H         -7.3101431967       -0.4670102887       -0.2292786260
 H         -4.9735312777        0.7903459610       -1.6187622455
 H         -5.1529261168       -0.9202253260       -1.3230150042
 H         -5.1768978132       -0.4791560421        1.1598943378
 H         -4.9783648039        1.2217991533        0.8573315953
 H         -2.8342715862        2.1186649109        0.1006983641
 H         -0.4172020649        1.8310125132       -0.0116409671
 H          1.2699886814       -1.5445557955        0.3250380433
 H          1.5778058584        1.4593719269       -0.0678626446
 H          3.2575561386       -1.9245712307        0.2251907188
 H          5.6739971717       -2.2187424203        0.0968446429
 H          7.1466353780       -0.2784758533       -0.2340636023
 H          6.1859736566        1.9767491337       -0.4365138598
 H          3.7617281586        2.2977360526       -0.3103880986
 H         -0.9122833206       -2.3814206264        0.5784875562
 H         -3.3373682777       -2.0639680327        0.6883254359
  35
        -45.88410073
 N         -6.2227975124       -1.2926447803       -0.0945284762
 C         -5.6593987222       -0.0297573682       -0.6587840571
 C         -4.7619053417        0.7230240355        0.3360018467
 C         -3.2912294499        0.4313209255        0.2127016527
 C         -2.3607085737        1.4443877327        0.4331246652
 C         -1.0099696845        1.2046576213        0.3521444579
 C         -0.5198722255       -0.0794088793        0.0489960064
 C          0.8722717396       -0.3775630116       -0.0489651373
 C          1.8950636505        0.5158574511        0.1255658284
 C          3.2871691651        0.2176558177        0.0252419649
 C          3.7743870913       -1.0707395375       -0.2699082328
 C          5.1246119140       -1.3111808444       -0.3574240850
 C          6.0326240009       -0.2856953542       -0.1557696200
 C          5.5804251804        0.9896761420        0.1359954282
 C          4.2329865082        1.2420217022        0.2260652065
 C         -1.4666138505       -1.0987750599       -0.1614326184
 C         -2.8139971522       -0.8437889846       -0.0773817664
 H         -5.4882751718       -1.9320816827        0.2397035585
 H         -6.7871183366       -1.8044011034       -0.7902048772
 H         -6.8385834940       -1.0923639381        0.7121413996
 H         -6.4967895597        0.6059413458       -0.9740666814
 H         -5.0991563062       -0.2434315676       -1.5763740146
 H         -5.0837871579        0.4970418626        1.3573529300
 H         -4.9075382671        1.8027902469        0.2206487223
 H         -2.7133114817        2.4330508046        0.6733177977
 H         -0.3217530706        2.0118429404        0.5259719228
 H          1.1227740796       -1.3960064054       -0.2826909369
 H          1.6445691129        1.5350615458        0.3570265114
 H          3.0850669794       -1.8802569770       -0.4291267006
 H          5.4807747177       -2.3031582716       -0.5842079642
 H          7.0906213452       -0.4802116098       -0.2257870413
 H          6.2892303397        1.7867037591        0.2927154953
 H          3.8876816271        2.2363812319        0.4530094907
 H         -1.1217759927       -2.0924233209       -0.3910104137
 H         -3.5137846047       -1.6420238844       -0.2450075080
  35
        -45.88390509
 N         -5.8342653437        0.3780241558       -1.7915952114
 C         -5.5081598212       -0.5523833740       -0.6698240765
 C         -4.8392291097        0.1553321524        0.5196204472
 C         -3.3369840118        0.0804749435        0.5371188945
 C         -2.6620529344       -0.0984093873        1.7423225975
 C         -1.2899750327       -0.1448543579        1.7891107892
 C         -0.5172442481       -0.0071585419        0.6210240992
 C          0.9062042826       -0.0615034265        0.7070833709
 C          1.7758392007        0.0579959782       -0.3436648575
 C          3.1992773289        0.0013569378       -0.2562793568
 C          3.8843154385       -0.1912744324        0.9595255656
 C          5.2572536628       -0.2401932302        0.9952661246
 C          5.9931916785       -0.1001603231       -0.1690004905
 C          5.3448280321        0.0905033933       -1.3770417982
 C          3.9727788823        0.1411530686       -1.4251922290
 C         -1.2067641519        0.1824599862       -0.5909621934
 C         -2.5801849152        0.2267806111       -0.6221761084
 H         -6.5147752139        1.0909950000       -1.4900242291
 H         -6.2490429281       -0.1203322862       -2.5940375785
 H         -5.0006757949        0.8823067245       -2.1360100639
 H         -4.8646641867       -1.3637859602       -1.0287490487
 H         -6.4375883254       -1.0415110106       -0.3504193388
 H         -5.2153550994       -0.2646085878        1.4594170332
 H         -5.1422197288        1.2066198062        0.5337621714
 H         -3.2308288374       -0.1992705089        2.6510266365
 H         -0.7906267727       -0.2865440200        2.7320666206
 H          1.3153364373       -0.2099905674        1.6895399195
 H          1.3669771783        0.2073807947       -1.3263135011
 H          3.3305389066       -0.3021586257        1.8743451151
 H          5.7658960149       -0.3884204863        1.9341993858
 H          7.0699522604       -0.1397483659       -0.1348829247
 H          5.9198927531        0.1993781115       -2.2823770558
 H          3.4745298304        0.2897140314       -2.3681275961
 H         -0.6554012583        0.2954333390       -1.5069254123
 H         -3.0829622244        0.3714974332       -1.5610629397
  35
        -45.88308554
 N         -6.8956481627        0.2017022292       -0.9645493395
 C         -5.4040461690        0.2087145013       -1.0271028436
 C         -4.7648546926       -0.0304426276        0.3381976425
 C         -3.2599400758       -0.0491875551        0.3689734957
 C         -2.6149005933       -0.2912413284        1.5789362972
 C         -1.2443203088       -0.3167725730        1.6645955956
 C         -0.4415757406       -0.0983185560        0.5298758974
 C          0.9797173974       -0.1315641673        0.6539035624
 C          1.8754932984        0.0641366530       -0.3629498675
 C          3.2968093302        0.0309710989       -0.2379946522
 C          3.9520353190       -0.2158045694        0.9844116434
 C          5.3241997093       -0.2372245290        1.0571155376
 C          6.0886957407       -0.0157585181       -0.0756966629
 C          5.4698982902        0.2287028641       -1.2895442363
 C          4.0989328735        0.2525872275       -1.3745187297
 C         -1.1001809930        0.1462609055       -0.6893058377
 C         -2.4731473099        0.1691390851       -0.7608572877
 H         -7.2482872044       -0.7021213309       -0.6168988395
 H         -7.3210563302        0.3663367908       -1.8897563167
 H         -7.2451592002        0.9361555254       -0.3256605255
 H         -5.0643625809        1.1673656894       -1.4345383711
 H         -5.0681477993       -0.5577567828       -1.7345590002
 H         -5.1331446077       -0.9791705831        0.7412740306
 H         -5.1183302052        0.7350875505        1.0357354548
 H         -3.2094695487       -0.4601722903        2.4607585670
 H         -0.7697744482       -0.5061157495        2.6119605935
 H          1.3642975627       -0.3280023434        1.6378512073
 H          1.4910063129        0.2614331720       -1.3469709776
 H          3.3757579320       -0.3902179174        1.8751170942
 H          5.8098869641       -0.4273310888        2.0006294317
 H          7.1647079195       -0.0339528244       -0.0126269863
 H          6.0672450280        0.4004099995       -2.1703855676
 H          3.6236664871        0.4429047188       -2.3218064671
 H         -0.5247257724        0.3184685868       -1.5809353894
 H         -2.9462970025        0.3595028389       -1.7084912924
