  35
        -45.89036700
 N         -5.3816818476       -0.5994417066       -1.5507087972
 C         -5.5128111116        0.5862460278       -0.6565226719
 C         -4.8441733756        0.3702343173        0.6993952907
 C         -3.3640831216        0.1527115460        0.5929209877
 C         -2.5015443288        1.2302085926        0.4155579524
 C         -1.1456201852        1.0423157870        0.2949308607
 C         -0.5871115258       -0.2491919149        0.3421109273
 C          0.8138433676       -0.4946739357        0.2252623110
 C          1.7824016541        0.4607586282        0.0710442824
 C          3.1829958488        0.2145593171       -0.0498516800
 C          3.7363564781       -1.0808350052       -0.0351200841
 C          5.0921458955       -1.2698894565       -0.1564837604
 C          5.9405111458       -0.1846399717       -0.2954591712
 C          5.4226687476        1.0989788460       -0.3126088633
 C          4.0689917939        1.3003281328       -0.1925597477
 C         -1.4705523687       -1.3313559885        0.5133985434
 C         -2.8245038376       -1.1301449438        0.6339348401
 H         -5.8301593580       -0.4424309852       -2.4663244694
 H         -5.8206580550       -1.4313551180       -1.1286664762
 H         -4.3874165812       -0.8259356582       -1.7235931298
 H         -6.5757835955        0.8228617341       -0.5253268750
 H         -5.0714888704        1.4598669844       -1.1497367167
 H         -5.2997086537       -0.4907601032        1.1985206639
 H         -5.0318977130        1.2235535173        1.3599502491
 H         -2.9114749184        2.2251096625        0.3774530693
 H         -0.5065114848        1.8963610346        0.1628729866
 H          1.1191058803       -1.5240642088        0.2678862004
 H          1.4783059152        1.4911031434        0.0392926643
 H          3.0938757170       -1.9363171593        0.0709274598
 H          5.4993533002       -2.2680387811       -0.1437917978
 H          7.0032166480       -0.3390360728       -0.3901687958
 H          6.0851713998        1.9425985186       -0.4203872949
 H          3.6725356541        2.3013947539       -0.2060569214
 H         -1.0713925173       -2.3303265257        0.5539624894
 H         -3.4828368784       -1.9720163287        0.7676189327
