  22
        -34.71148997
 N         -2.3388562744        1.0176474925        1.4548579769
 C         -2.2225866419        2.0834139539        0.4246864175
 C         -1.5562632320        1.5732816147       -0.8503020367
 C         -0.2124147053        0.9568663398       -0.5942129437
 C         -0.0962897697       -0.4110491587       -0.3732158922
 C          1.1305010404       -0.9780722213       -0.0970636085
 C          2.2615824671       -0.1811665730       -0.0308680000
 Cl         3.7982269386       -0.8875179815        0.3203671511
 C          2.1568166705        1.1843418294       -0.2402428911
 C          0.9278468147        1.7480502823       -0.5162299597
 Cl        -3.3575503226       -1.8909888246       -0.1821194634
 H         -1.4066829839        0.7304043713        1.7921575314
 H         -2.7855685479        0.1718196453        1.0543110529
 H         -2.8916588919        1.3169478707        2.2753364665
 H         -1.6467957217        2.9214668635        0.8359415417
 H         -3.2169076615        2.4884957479        0.1979898800
 H         -1.4507134459        2.3827073573       -1.5826748487
 H         -2.2019766877        0.8283676414       -1.3293053970
 H         -0.9817409402       -1.0248262059       -0.4065865850
 H          1.2255806142       -2.0377991078        0.0740279082
 H          3.0447212643        1.7924727467       -0.1813358674
 H          0.8421103655        2.8109268294       -0.6707442961
  22
        -34.71139408
 N         -2.3376038363        1.0143740493        1.4568271036
 C         -2.2227578682        2.0830203491        0.4294704146
 C         -1.5563855633        1.5766945275       -0.8469981093
 C         -0.2128406391        0.9591144244       -0.5922050334
 C          0.9266725606        1.7507035517       -0.5042382283
 C          2.1551895886        1.1857974638       -0.2282975615
 C          2.2602700491       -0.1811836400       -0.0293640808
 Cl         3.7962426386       -0.8893046840        0.3211968321
 C          1.1299240521       -0.9783510554       -0.1055848471
 C         -0.0963046640       -0.4101464991       -0.3813596973
 Cl        -3.3542272955       -1.8913297196       -0.1910193687
 H         -1.4049900999        0.7271691935        1.7929430134
 H         -2.7834723340        0.1691461441        1.0540906413
 H         -2.8903915391        1.3109036524        2.2783239184
 H         -1.6474787953        2.9204357721        0.8427462061
 H         -3.2174789416        2.4879113889        0.2042078367
 H         -1.4503584165        2.3883127043       -1.5768674306
 H         -2.2022226395        0.8334280592       -1.3283879639
 H          0.8406026470        2.8147572599       -0.6508115129
 H          3.0422675102        1.7940318969       -0.1612383300
 H          1.2251609704       -2.0394700017        0.0575306475
 H         -0.9811154269       -1.0242796919       -0.4218055448
  22
        -34.71128425
 N         -2.4754631258        0.9435632802       -1.2708819766
 C         -2.2598822963        2.0641454124       -0.3177245054
 C         -1.4696988861        1.6232765598        0.9115617712
 C         -0.1561701869        0.9895563686        0.5586835784
 C         -0.0601631651       -0.3883758823        0.3988476396
 C          1.1346431046       -0.9735040178        0.0344153697
 C          2.2529291929       -0.1853509224       -0.1824138047
 Cl         3.7496664694       -0.9149522728       -0.6417705256
 C          2.1671257479        1.1895665070       -0.0351668773
 C          0.9700648303        1.7713832833        0.3292944855
 Cl        -3.3139387579       -1.8707614729        0.6142902417
 H         -2.8765604728        0.1250967573       -0.7836398271
 H         -1.5778849241        0.6345247189       -1.6847523765
 H         -3.1079049650        1.1989183578       -2.0474929485
 H         -3.2277374728        2.4849508230       -0.0167059134
 H         -1.7292014913        2.8758159690       -0.8298295756
 H         -2.0631248525        0.9080371666        1.4925188358
 H         -1.2943606777        2.4717300420        1.5839624401
 H         -0.9372249273       -0.9964211215        0.5501954892
 H          1.2139747127       -2.0410250485       -0.0898356533
 H          3.0443263466        1.7904591828       -0.2115480319
 H          0.8984583042        2.8411329712        0.4362512141
  22
        -34.70530019
 N         -3.3947517266        1.5479033614        0.6184236387
 C         -1.9224410589        1.3574475880        0.7022789218
 C         -1.3690127785        0.6200059898       -0.5107793551
 C          0.1104555565        0.3807310446       -0.4217630652
 C          1.0107846053        1.3252902076       -0.9024453028
 C          2.3709499521        1.1222070540       -0.7887043947
 C          2.8514295661       -0.0284432752       -0.1851033458
 Cl         4.5535709231       -0.2836891239       -0.0397859700
 C          1.9637869555       -0.9721454384        0.3055336082
 C          0.6043383080       -0.7659895061        0.1901951476
 Cl        -4.7779197209       -1.6264369204        0.3135710001
 H         -3.7748430016        2.0333601777        1.4474849110
 H         -3.8749939326        0.6316789582        0.5399879430
 H         -3.6510446011        2.1007607784       -0.2151295892
 H         -1.6719263863        0.8033219736        1.6151336455
 H         -1.4246515298        2.3291356511        0.8051304643
 H         -1.5954428456        1.1831113264       -1.4231411561
 H         -1.8865790352       -0.3387016051       -0.6286878422
 H          0.6348106129        2.2234854148       -1.3640490365
 H          3.0729025405        1.8498608764       -1.1617478545
 H          2.3516767925       -1.8603849015        0.7770252128
 H         -0.0880438845       -1.4943661011        0.5789200249
  22
        -34.70521542
 N         -3.3858124337        1.0911061236        1.2467916613
 C         -1.9152880595        1.1126938706        1.0271092728
 C         -1.3572364038       -0.2749105728        0.7360653316
 C          0.1231625517       -0.2664726974        0.4856990609
 C          1.0200041751       -0.3967253652        1.5404729581
 C          2.3810354531       -0.3544363284        1.3162117915
 C          2.8658214515       -0.1742778811        0.0310902092
 Cl         4.5689774277       -0.1181591511       -0.2514210411
 C          1.9817776393       -0.0345167603       -1.0263186095
 C          0.6214526518       -0.0771443520       -0.7985024913
 Cl        -4.8342607929       -0.2706809402       -1.6038682104
 H         -3.6318462235        0.4917434488        2.0504398917
 H         -3.8725420617        0.7059182338        0.4154807422
 H         -3.7687340414        2.0337393587        1.4279816714
 H         -1.4128430945        1.5379016484        1.9044006373
 H         -1.6740592961        1.7877428907        0.1970923943
 H         -1.8712617099       -0.7064294575       -0.1302281845
 H         -1.5839625701       -0.9487242755        1.5699672753
 H          0.6406076308       -0.5287825326        2.5403534513
 H          3.0802559263       -0.4567851465        2.1298325714
 H          2.3730843259        0.1094543357       -2.0202127939
 H         -0.0680940342        0.0394624380       -1.6182233537
  22
        -34.70507182
 N         -3.3873953364        1.0789375634        1.2564594154
 C         -1.9183603252        1.1049284780        1.0277928013
 C         -1.3586030303       -0.2808939211        0.7316077587
 C          0.1219817958       -0.2700916597        0.4827258724
 C          1.0173677802       -0.3814388260        1.5409278153
 C          2.3785459281       -0.3371988104        1.3184475584
 C          2.8649004885       -0.1741034268        0.0316282862
 Cl         4.5682618474       -0.1151046378       -0.2486955051
 C          1.9822264862       -0.0533728917       -1.0293265625
 C          0.6217052908       -0.0977786792       -0.8033550644
 Cl        -4.8287168203       -0.2586282308       -1.6071299542
 H         -3.7708595174        2.0195158772        1.4457950093
 H         -3.6284858648        0.4717670700        2.0603750516
 H         -3.8763378739        0.6997251530        0.4278776634
 H         -1.4119522757        1.5299877386        1.9028349885
 H         -1.6835909310        1.7819510152        0.1974820467
 H         -1.8718370234       -0.7098730033       -0.1364207012
 H         -1.5848380830       -0.9579202665        1.5630357523
 H          0.6365411023       -0.5002026676        2.5419430416
 H          3.0767091517       -0.4250694520        2.1347167818
 H          2.3748121779        0.0771420339       -2.0246085668
 H         -0.0667289377        0.0038316588       -1.6260349411
  22
        -34.70489309
 N         -2.3781014629       -0.1803400765       -0.3587279940
 C         -2.1726803400        1.2853832686       -0.2246684529
 C         -1.0663959368        1.7932021063       -1.1446150559
 C          0.2569470038        1.1447117222       -0.8602558328
 C          0.7066323882        0.0789137021       -1.6324915959
 C          1.9001201001       -0.5485685034       -1.3390528174
 C          2.6610686059       -0.1212187441       -0.2633664505
 Cl         4.1519433347       -0.9096149306        0.1097831317
 C          2.2208849242        0.9360301559        0.5160522546
 C          1.0265420642        1.5606650374        0.2202317523
 Cl        -4.8381367116       -1.3276600566        1.8117910758
 H         -2.6476279094       -0.4304840054       -1.3233056457
 H         -3.1190323748       -0.5323982255        0.2783034871
 H         -1.5091359291       -0.6929716367       -0.1412551643
 H         -1.9219011626        1.5215173083        0.8166374973
 H         -3.1146730234        1.8093351828       -0.4299558362
 H         -0.9598193634        2.8812731533       -1.0577874913
 H         -1.3416391199        1.6070105771       -2.1887851115
 H          0.1099268705       -0.2583285704       -2.4639531507
 H          2.2533983826       -1.3741524991       -1.9348555662
 H          2.8211826580        1.2553749461        1.3523180208
 H          0.6771407269        2.3765722810        0.8311340739
  22
        -34.70485959
 N         -2.2473611023        0.5445178114        0.6861594157
 C         -2.2370423734        0.8861601048       -0.7600944619
 C         -1.0620563525        1.7881305852       -1.1257736609
 C          0.2641137115        1.1492913022       -0.8327952777
 C          0.7949000549        0.2003992881       -1.6995618634
 C          1.9918804622       -0.4236511189       -1.4129126329
 C          2.6741097770       -0.1113806932       -0.2484878319
 Cl         4.1689893643       -0.8963257607        0.1160260499
 C          2.1519535241        0.8275983978        0.6259496658
 C          0.9552389595        1.4502800516        0.3357838756
 Cl        -4.9155091936       -1.5434347228        1.4638090416
 H         -1.3756287749        0.0623961312        0.9552948034
 H         -3.0409936515       -0.0771879503        0.9358502590
 H         -2.3186687237        1.3948771715        1.2674190932
 H         -3.1872451032        1.3631312399       -1.0320462038
 H         -2.1885910044       -0.0373535824       -1.3495689983
 H         -1.1369881661        2.7316283270       -0.5736235400
 H         -1.1016128214        2.0639631864       -2.1865338131
 H          0.2580003053       -0.0470938047       -2.6004728513
 H          2.4083909523       -1.1580871722       -2.0826056447
 H          2.6920246115        1.0581745469        1.5297446460
 H          0.5444853347        2.1748312751        1.0193485569
  22
        -34.70473001
 N         -2.2463343480        0.5480913064        0.6848103800
 C         -2.2388317230        0.8954264692       -0.7601272248
 C         -1.0628943916        1.7966089559       -1.1247634819
 C          0.2623685404        1.1554444315       -0.8327737621
 C          0.7897438877        0.2038513308       -1.6986462609
 C          1.9849306730       -0.4235657806       -1.4118598751
 C          2.6689415779       -0.1117375673       -0.2483670466
 Cl         4.1618101116       -0.9005460845        0.1160836981
 C          2.1504144690        0.8302715322        0.6249583845
 C          0.9554197348        1.4562062356        0.3347294613
 Cl        -4.9006836030       -1.5544071561        1.4639599814
 H         -2.3178478755        1.3957620266        1.2695792559
 H         -1.3706058393        0.0643854077        0.9515277291
 H         -3.0359690522       -0.0739442661        0.9325011413
 H         -3.1887616832        1.3751131754       -1.0282255985
 H         -2.1932371222       -0.0258793332       -1.3532741084
 H         -1.1365101239        2.7393491947       -0.5711440465
 H         -1.1022538702        2.0740535479       -2.1851057274
 H          0.2515104723       -0.0432580659       -2.5988632416
 H          2.3985221165       -1.1605090697       -2.0806009320
 H          2.6919113557        1.0607625897        1.5279171072
 H          0.5473322670        2.1830246844        1.0174831387
  22
        -34.70463197
 N         -3.1597968648        1.0578851423       -0.2073136250
 C         -2.6682201208        1.9845096246        0.8460161646
 C         -1.3111066568        2.5887934387        0.4967855399
 C         -0.2412469524        1.5537900026        0.3043029251
 C          0.2883111664        0.8772818007        1.3973883120
 C          1.2565378685       -0.0907863971        1.2248732683
 C          1.7086827833       -0.3988693485       -0.0477135391
 Cl         2.9092158290       -1.6209544962       -0.2675412165
 C          1.1865653487        0.2664479374       -1.1448809268
 C          0.2167020790        1.2320973750       -0.9688808199
 Cl        -1.3740315594       -1.9502293213       -0.4424744103
 H         -4.1091876123        0.7052711390       -0.0020182253
 H         -2.5385709805        0.2325862984       -0.3014487308
 H         -3.1916098666        1.5259254887       -1.1269779411
 H         -2.5999911325        1.4456235443        1.7987530526
 H         -3.4071220509        2.7795946244        1.0078187750
 H         -0.9907602518        3.2921614378        1.2749863237
 H         -1.4016147632        3.1857171853       -0.4177171029
 H         -0.0671274166        1.1165255417        2.3860581839
 H          1.6686384158       -0.6190208383        2.0689369984
 H          1.5452858151        0.0138759464       -2.1293393194
 H         -0.1952363510        1.7442824931       -1.8225842317
  22
        -34.70443192
 N         -3.1588273616        1.0671962403       -0.2224626625
 C         -2.6693302522        1.9782507621        0.8453139422
 C         -1.3095841169        2.5843976258        0.5099824338
 C         -0.2396752588        1.5503883537        0.3126855840
 C          0.2991550465        0.8779358922        1.4037302468
 C          1.2682538804       -0.0885119983        1.2268643650
 C          1.7111637450       -0.3996440967       -0.0482280296
 Cl         2.9120460501       -1.6203664711       -0.2734323522
 C          1.1790473357        0.2609281287       -1.1433910916
 C          0.2087208657        1.2253275030       -0.9630056553
 Cl        -1.3813275277       -1.9462382668       -0.4428689333
 H         -3.1814648954        1.5463632472       -1.1364423237
 H         -4.1147524151        0.7159990039       -0.0275270418
 H         -2.5429392644        0.2425747525       -0.3210521347
 H         -2.6060214003        1.4263145950        1.7909005324
 H         -3.4071308246        2.7727013069        1.0149888604
 H         -0.9930255020        3.2792636337        1.2973172245
 H         -1.3941550850        3.1911037188       -0.3986453454
 H         -0.0495387827        1.1188092022        2.3943882660
 H          1.6885907769       -0.6128732480        2.0692366065
 H          1.5303174764        0.0058857662       -2.1299139001
 H         -0.2109166746        1.7342314271       -1.8148915457
  22
        -34.70431755
 N         -3.1558570170        1.0766316902       -0.2241708738
 C         -2.6628039497        1.9790287056        0.8494479198
 C         -1.3030420349        2.5859893687        0.5158432589
 C         -0.2335473968        1.5521368366        0.3163091220
 C          0.3409338875        0.9133002350        1.4094280956
 C          1.3086610252       -0.0542000132        1.2309173103
 C          1.7138237856       -0.4006991642       -0.0476339545
 Cl         2.9130227377       -1.6228521636       -0.2742941069
 C          1.1455052058        0.2257607931       -1.1446659852
 C          0.1768474592        1.1915222271       -0.9625529784
 Cl        -1.3980075667       -1.9496754604       -0.4499214735
 H         -3.1765621120        1.5616614992       -1.1351216331
 H         -4.1132869246        0.7282752879       -0.0316474637
 H         -2.5437157860        0.2498502368       -0.3277854514
 H         -2.5979680626        1.4200664343        1.7908335516
 H         -3.3992846435        2.7731568483        1.0263298235
 H         -0.9867141240        3.2789559095        1.3049635293
 H         -1.3868677835        3.1948841756       -0.3913867272
 H          0.0215280251        1.1820356091        2.4028382620
 H          1.7573660915       -0.5516307609        2.0750208974
 H          1.4670814821       -0.0573806963       -2.1336404472
 H         -0.2718334462        1.6728247971       -1.8156879335
