43
 energy: -67.897111878295 gnorm: 0.000306346235 xtb: 6.5.1 (fef0646)
N            0.97417221564789        1.95945115033740       -0.00457219367504
C            2.02836802263619        1.76241791522001       -1.01421739932902
C            3.37653492881096        1.50774841704314       -0.32641716006201
O            4.35439059751859        1.06792739569875       -1.24831047298752
C            4.97252750052129        1.96858846006820       -2.06286543041182
C            4.78902098865038        3.33069049333423       -2.03633357800232
C            5.49673137453163        4.15489960625944       -2.90840473999377
C            6.38849895780069        3.66156760793280       -3.84231269507281
C            6.57970223298553        2.25448598350361       -3.90779628294936
C            7.45875254076906        1.67126612938553       -4.86018316095317
C            7.64880402233459        0.29958273062509       -4.84041740208993
C            6.97976678787982       -0.52045856038440       -3.93453450213233
C            6.10014476626674        0.01900623242034       -3.03603986543481
C            5.88570343970314        1.40895051583239       -3.00379923102378
C            7.12997685897431        4.52869103728980       -4.74704052453971
C            7.04322693536119        5.90967304748103       -4.68529406936293
C            7.73851078697027        6.73018924759199       -5.57275199290384
C            8.52724568710669        6.18179965357636       -6.54572018388177
C            8.65875977779095        4.78279521848037       -6.64746647640835
C            9.46668011263761        4.21045442335653       -7.64953237063487
C            9.58706018658873        2.85195626811876       -7.74492406302574
C            8.92781482346858        2.02216271582950       -6.83832596974380
C            8.13273674993337        2.53256407588678       -5.82585625283719
C            7.96922258231821        3.94146749002099       -5.73270133698681
Cl           1.06419317215386       -0.35088079434230        1.96995549760232
H            0.05158723788831        2.02118276735707       -0.44196285191843
H            1.14567466691418        2.79803342508067        0.55577735750282
H            0.96047790619551        1.14353302295548        0.66498123822780
H            2.08819608934037        2.63216837562382       -1.67037644047949
H            1.79272454485939        0.88263303354217       -1.61350101506427
H            3.25768645507218        0.67976028356033        0.37808172036288
H            3.72862355376015        2.38712117509092        0.22173770981212
H            4.11630078663710        3.79785700424241       -1.33719291141533
H            5.31695822834621        5.21440401583086       -2.83423325071699
H            8.33027316870840       -0.16844478240464       -5.53178199936838
H            7.15771918077649       -1.58522919506906       -3.95241036528569
H            5.56473030609008       -0.60209272624699       -2.33581938523144
H            6.43069246721558        6.38722189250979       -3.93855998298694
H            7.64248089134278        7.80242074801900       -5.48673023424140
H            9.06129783180963        6.80643299371087       -7.24646014149108
H            9.98192805009868        4.86331400108963       -8.33868251015449
H           10.19657558956168        2.40917320913116       -8.51881572328880
H            9.05369699597873        0.95796429541223       -6.95241935743900
