21
 energy: -29.414121993630 gnorm: 0.000330083777 xtb: 6.5.1 (fef0646)
N            2.82368539474178        0.12043803298145        1.14586360385332
C            2.48118446417656       -0.28489078543340       -0.23889977071439
C            2.99665067823714        0.75362042357959       -1.23439613615065
C            4.50167998257523        0.79179566975624       -1.27407669458222
C            5.21098662489738       -0.25130612769647       -1.86110494467739
C            6.59334536193358       -0.23840677769920       -1.89898030238389
C            7.27122756773774        0.83293725676322       -1.34206631480855
Br           9.21856316407397        0.86519680783450       -1.39871416919946
C            6.59155759397374        1.88346395134664       -0.75272848963362
C            5.20723701764037        1.85307004874415       -0.71899172699933
H            2.54071851166418       -0.60092514868593        1.81853286390197
H            2.35195800847816        1.00019720551711        1.38699745630607
H            3.83723207978401        0.26715882302218        1.22434419704474
H            1.39933436757713       -0.37378899284982       -0.32796457728388
H            2.93365689026156       -1.25335685791881       -0.44900833670554
H            2.60936058618442        1.74032004871786       -0.98349639628814
H            2.62466860263018        0.49348986523822       -2.22480214306542
H            4.68554651502428       -1.07973915696592       -2.30990555938956
H            7.14111560758876       -1.04466081573370       -2.35973261530199
H            7.13671661298681        2.71246129522977       -0.33118433386040
H            4.68425436783280        2.68435523425222       -0.27222561006155
