  19
        -28.59507234
 N         -1.2237007988       -1.5421302467       -1.2105713900
 C         -0.5411675473       -2.2584158676       -0.0981785762
 C         -0.0668399912       -1.2980159715        0.9893720340
 C          0.7839451836       -0.2018430520        0.4518529884
 C          0.3344720932        1.0187711390        0.0641408718
 C          1.3613460744        1.8735140325       -0.4346003801
 C          2.5836489149        1.2960927176       -0.4235577834
 S          2.5008257382       -0.3127749593        0.2002210973
 Cl        -3.2433803159        0.9348478472        0.1906879990
 H         -0.5523704212       -0.9464682157       -1.7283960085
 H         -1.9557128075       -0.9127931832       -0.8422254703
 H         -1.6619757077       -2.1865318870       -1.8895266779
 H          0.3138130972       -2.8156514053       -0.5003747034
 H         -1.2150979660       -3.0128328139        0.3272206836
 H          0.4894893049       -1.8366256735        1.7663091585
 H         -0.9332971278       -0.8566297672        1.4961136337
 H         -0.7069757327        1.3005275314        0.1164492723
 H          1.1766240797        2.8786276426       -0.7866897122
 H          3.4949853411        1.7593402537       -0.7546227032
