  11
        -15.16759489
 N         -1.4512433867        0.5168872857       -0.1057588565
 C         -0.6837940994       -0.7157393513        0.2372564343
 C          0.7518222402       -0.6063506866       -0.2557939198
 F          1.2668020208        0.5623946101        0.1223818759
 H         -0.9385578428        1.3307944319        0.2422042791
 H         -2.3850678852        0.5039774499        0.3113559465
 H         -1.5440615264        0.6079856371       -1.1193976251
 H         -1.1859924180       -1.6032428123       -0.1756359640
 H         -0.6794976184       -0.8286588940        1.3313284898
 H          0.8114635569       -0.6401167476       -1.3527340914
 H          1.4002664000       -1.3995707549        0.1466734723
  11
        -15.16749818
 N         -1.4489110760        0.5185124538       -0.1037592231
 C         -0.6847313880       -0.7177095554        0.2342590142
 C          0.7531544427       -0.6082021910       -0.2525704140
 F          1.2642012862        0.5640003466        0.1202490238
 H         -0.9450249683        1.3278472487        0.2668697165
 H         -2.3909552582        0.4974121672        0.2942589524
 H         -1.5213415165        0.6256473375       -1.1174983420
 H         -1.1866398956       -1.6016407867       -0.1865327896
 H         -0.6852801538       -0.8386471162        1.3275024487
 H          0.8182542345       -0.6493230177       -1.3490124173
 H          1.4014446889       -1.3974369033        0.1579271443
  11
        -15.16741708
 N         -1.4435139328        0.5201614028        0.1318999250
 C         -0.6902100229       -0.7199273444       -0.2163373706
 C          0.7593994072       -0.6096205825        0.2345921614
 F          1.2584520429        0.5653251968       -0.1455652636
 H         -1.4962704501        0.6325675129        1.1463518840
 H         -2.3928918494        0.4990934691       -0.2478227446
 H         -0.9452376068        1.3265597783       -0.2529848011
 H         -0.7186683709       -0.8484896642       -1.3085473550
 H         -1.1831520681       -1.5999575099        0.2223760361
 H          1.3990153240       -1.3954929600       -0.1951719380
 H          0.8518965741       -0.6549779085        1.3290880668
  11
        -15.16553105
 N         -1.9097767430        0.0244214955       -0.2805050070
 C         -0.6045794466       -0.0751008048        0.4489345497
 C          0.6197143959        0.0744128900       -0.4447682554
 F          1.7419883962       -0.0249336865        0.2742930368
 H         -1.9777088830       -0.7021032190       -0.9945501801
 H         -1.9973533844        0.9345331810       -0.7349344426
 H         -2.6928594235       -0.0872975549        0.3653561898
 H         -0.5471447389       -1.0424304356        0.9692881525
 H         -0.5648393655        0.6912589145        1.2367392461
 H          0.6430922747        1.0516738496       -0.9468760467
 H          0.6608651974       -0.7068331347       -1.2168015775
