  11
  -15.048866130000000       0.16878937077535250      !mtd13
 N          1.4321545568       -0.5197009992       -0.1001691744
 C          0.6851946267        0.7293950665        0.2183916733
 C         -0.7640530575        0.6149469381       -0.2354533088
 F         -1.2418117016       -0.5754533719        0.1157386863
 H          1.4769738360       -0.6762178262       -1.1173452339
 H          0.9484851868       -1.3304385394        0.3150653007
 H          2.3975677975       -0.4984435573        0.2626098218
 H          1.1823957748        1.5998077078       -0.2364994984
 H          0.7139191716        0.8827486152        1.3081969992
 H         -0.8590687722        0.6881472106       -1.3293599519
 H         -1.4155415616        1.3833075005        0.2110809712
  11
  -15.048857490000000       0.16725319591031546      !md6
 N          1.4294295967       -0.5200363771        0.1266573014
 C          0.6893658911        0.7298414446       -0.2046990530
 C         -0.7685895179        0.6152496413        0.2204259949
 F         -1.2387997664       -0.5757352497       -0.1388140832
 H          0.9538398774       -1.3293883376       -0.2988166765
 H          1.4538447669       -0.6779838072        1.1449809160
 H          2.4018650180       -0.4987240802       -0.2168493931
 H          0.7396668237        0.8847978272       -1.2938711913
 H          1.1777346004        1.5991157569        0.2609212790
 H         -1.4113446228        1.3828334330       -0.2396383024
 H         -0.8854279439        0.6893075944        1.3122865202
  11
  -15.048852840000000       0.16643223030956547      !md2
 N          1.4290240627       -0.5202311917        0.1264977372
 C          0.6894966162        0.7301054467       -0.2042386731
 C         -0.7687514400        0.6154832456        0.2199635648
 F         -1.2383651805       -0.5759255490       -0.1385879160
 H          2.4017045334       -0.4988097240       -0.2160545784
 H          0.9533808606       -1.3295521777       -0.3006049980
 H          1.4523679396       -0.6792766854        1.1440958289
 H          0.7405610639        0.8860155976       -1.2932350964
 H          1.1778248865        1.5988580336        0.2624038951
 H         -1.4114304663        1.3824301082       -0.2412721392
 H         -0.8864145769        0.6906576971        1.3116589853
  11
  -15.048850560000000       0.16603116590607661      !md4
 N          1.4313343876       -0.5201265576       -0.0995977959
 C          0.6854488304        0.7299384447        0.2175974262
 C         -0.7643807682        0.6153961190       -0.2345546955
 F         -1.2409671102       -0.5758655335        0.1151527925
 H          2.3972628849       -0.4987555266        0.2615522414
 H          1.4742327780       -0.6787828402       -1.1172013865
 H          0.9480881206       -1.3292859706        0.3177629273
 H          1.1826786122        1.5992446832       -0.2393823714
 H          0.7155959256        0.8854249341        1.3070638031
 H         -0.8610476659        0.6902407910       -1.3282217043
 H         -1.4157255444        1.3826798408        0.2140345828
  11
  -15.048849160000000       0.16578537736288063      !mtd14
 N          1.4315930001       -0.5199834350       -0.0997984937
 C          0.6853534713        0.7297542198        0.2178565102
 C         -0.7642856548        0.6152249058       -0.2348607124
 F         -1.2412687249       -0.5757200768        0.1153377658
 H          0.9484483056       -1.3294488176        0.3168598714
 H          2.3979961610       -0.4986707596        0.2620068652
 H          1.4751972110       -0.6778504165       -1.1169112816
 H          1.1826191300        1.5994264224       -0.2383815175
 H          0.7149969080        0.8844363622        1.3074495342
 H         -0.8603689841        0.6895381444       -1.3286131043
 H         -1.4157093239        1.3828399328        0.2130594451
  11
  -15.048848410000000       0.16565385463771659      !md6
 N          1.4294089786       -0.5200336603        0.1266442484
 C          0.6893777457        0.7298543882       -0.2046241066
 C         -0.7686009923        0.6152298712        0.2203868330
 F         -1.2388211884       -0.5757346578       -0.1387691223
 H          1.4528797663       -0.6787088358        1.1442049735
 H          2.4027497323       -0.4983121614       -0.2160523879
 H          0.9546045236       -1.3292805016       -0.3001313864
 H          0.7398436372        0.8850997077       -1.2937498106
 H          1.1777294957        1.5990035473        0.2612495123
 H         -1.4113665336        1.3827233739       -0.2398126510
 H         -0.8855763103        0.6894656953        1.3122123696
  11
  -15.040156290000001        1.6771803808359919E-005 !gc
 N          1.8220275386       -0.2345357624       -0.2519383139
 C          0.6198921195        0.3567488726        0.4103177647
 C         -0.6556982160        0.2715023035       -0.4368634751
 F         -1.6450151317       -0.2754344599        0.2716946873
 H          2.0424240599        0.2531031804       -1.1316894377
 H          1.6733717017       -1.2310422052       -0.4684473735
 H          2.6539179332       -0.1720016699        0.3532744260
 H          0.8287157789        1.3990304392        0.6983495073
 H          0.4347860564       -0.1799357452        1.3547896188
 H         -0.5128195042       -0.3610883800       -1.3249391009
 H         -1.0065659063        1.2562773016       -0.7851370626
  11
  -15.039893429999999        1.2699238558412367E-005 !md3
 N          1.9066860478       -0.0199746515       -0.2854252748
 C          0.6060557866        0.0799215106        0.4458218494
 C         -0.6224594687       -0.0780936244       -0.4424093355
 F         -1.7406722821        0.0201664884        0.2804374770
 H          2.7066628055        0.0937874277        0.3541134304
 H          1.9858688870        0.7080079812       -1.0101705052
 H          2.0080937048       -0.9355933156       -0.7454967236
 H          0.5476746657        1.0493701137        0.9648074954
 H          0.5703240230       -0.6805076170        1.2409688690
 H         -0.6420983576       -1.0570734552       -0.9434426747
 H         -0.6673150473        0.6976842258       -1.2210188750
  11
  -15.039891210000000        1.2669440616094512E-005 !gc
 N          1.9067101122       -0.0195554875       -0.2854693547
 C          0.6060276944        0.0793357850        0.4458412216
 C         -0.6225103983       -0.0790094162       -0.4423348060
 F         -1.7406684794        0.0209479186        0.2803492222
 H          2.0081808228       -0.9344791054       -0.7466553110
 H          2.7071561209        0.0934842456        0.3546838094
 H          1.9858437744        0.7090660817       -1.0087389821
 H          0.5470406352        1.0485953537        0.9651208650
 H          0.5708426623       -0.6813239303        1.2407888973
 H         -0.6424737554       -1.0583996975       -0.9425581714
 H         -0.6668439882        0.6960711353       -1.2217229710
  11
  -15.039890850000001        1.2664615110083404E-005 !md5
 N          1.9067032075       -0.0206913519       -0.2853157545
 C          0.6060330931        0.0807198544        0.4456905802
 C         -0.6225127782       -0.0757060425       -0.4427721085
 F         -1.7406316285        0.0183613524        0.2807085876
 H          1.9867944227        0.7067386466       -1.0095576062
 H          2.0072929677       -0.9369984202       -0.7454938357
 H          2.7067323247        0.0921228961        0.3544827251
 H          0.5487651239        1.0500116436        0.9650869930
 H          0.5691958777       -0.6800051179        1.2405073477
 H         -0.6410837822       -1.0528860194       -0.9473404526
 H         -0.6685853032        0.7027113288       -1.2186690145
