  11
  -15.167594890000000       0.13161359285833166      !mtd3
 N         -1.4512433867        0.5168872857       -0.1057588565
 C         -0.6837940994       -0.7157393513        0.2372564343
 C          0.7518222402       -0.6063506866       -0.2557939198
 F          1.2668020208        0.5623946101        0.1223818759
 H         -0.9385578428        1.3307944319        0.2422042791
 H         -2.3850678852        0.5039774499        0.3113559465
 H         -1.5440615264        0.6079856371       -1.1193976251
 H         -1.1859924180       -1.6032428123       -0.1756359640
 H         -0.6794976184       -0.8286588940        1.3313284898
 H          0.8114635569       -0.6401167476       -1.3527340914
 H          1.4002664000       -1.3995707549        0.1466734723
  11
  -15.167538800000001       0.12402909238514293      !mtd7
 N         -1.4470946558        0.5179777082        0.1335012952
 C         -0.6890573899       -0.7172678691       -0.2206745795
 C          0.7576271731       -0.6071713952        0.2392343499
 F          1.2622839389        0.5632065506       -0.1475816869
 H         -2.3953050891        0.4971771308       -0.2486357199
 H         -0.9495823847        1.3282557490       -0.2436420727
 H         -1.5026828931        0.6228567984        1.1484216532
 H         -0.7109429068       -0.8356791339       -1.3142690061
 H         -1.1822196813       -1.6017778446        0.2086774992
 H          1.3980483377       -1.3981573740       -0.1798310706
 H          0.8422915865       -0.6439697925        1.3346879104
  11
  -15.167515730000000       0.12103788540392006      !mtd3
 N         -1.4461794151        0.5184767699        0.1330774430
 C         -0.6894097669       -0.7179597079       -0.2195714861
 C          0.7579911613       -0.6077703600        0.2380412196
 F          1.2613927917        0.5637699521       -0.1470657495
 H         -1.4983293078        0.6271911382        1.1477728947
 H         -2.3957668131        0.4965485225       -0.2461695731
 H         -0.9495352351        1.3271707311       -0.2484907086
 H         -0.7130750901       -0.8388026791       -1.3129090165
 H         -1.1824900746       -1.6012194720        0.2124544570
 H          1.3982632813       -1.3976009592       -0.1833078081
 H          0.8444804892       -0.6467546727        1.3332969872
  11
  -15.167498180000001       0.11881079616806910      !md4
 N         -1.4489110760        0.5185124538       -0.1037592231
 C         -0.6847313880       -0.7177095554        0.2342590142
 C          0.7531544427       -0.6082021910       -0.2525704140
 F          1.2642012862        0.5640003466        0.1202490238
 H         -0.9450249683        1.3278472487        0.2668697165
 H         -2.3909552582        0.4974121672        0.2942589524
 H         -1.5213415165        0.6256473375       -1.1174983420
 H         -1.1866398956       -1.6016407867       -0.1865327896
 H         -0.6852801538       -0.8386471162        1.3275024487
 H          0.8182542345       -0.6493230177       -1.3490124173
 H          1.4014446889       -1.3974369033        0.1579271443
  11
  -15.167490519999999       0.11785163550603583      !md3
 N         -1.4459203512        0.5188036404        0.1328881670
 C         -0.6895019769       -0.7182574142       -0.2190194459
 C          0.7583056657       -0.6080893316        0.2374789279
 F          1.2609934249        0.5640081051       -0.1467935177
 H         -0.9469918717        1.3275743502       -0.2456514594
 H         -1.5026140523        0.6255476126        1.1477878037
 H         -2.3938704463        0.4989506108       -0.2503912366
 H         -0.7133048871       -0.8408074602       -1.3120644877
 H         -1.1828893764       -1.6011036693        0.2135720256
 H          1.3981230756       -1.3974000453       -0.1855267820
 H          0.8463734281       -0.6479114841        1.3325424567
  11
  -15.167487619999999       0.11749053088304288      !md4
 N         -1.4485393373        0.5187177901       -0.1035185216
 C         -0.6848423441       -0.7179777203        0.2339149744
 C          0.7532979815       -0.6084206596       -0.2521859860
 F          1.2638257307        0.5642026170        0.1199932632
 H         -2.3909588096        0.4969727728        0.2930941031
 H         -1.5196672804        0.6271141402       -1.1172825647
 H         -0.9452154084        1.3277977292        0.2687986174
 H         -1.1867503579       -1.6014556420       -0.1878361671
 H         -0.6860250695       -0.8399128834        1.3270429421
 H          0.8190183541       -0.6503519226       -1.3485634921
 H          1.4015804287       -1.3971723583        0.1592559225
  11
  -15.167473149999999       0.11570520992070450      !md4
 N         -1.4481647272        0.5189512822       -0.1032561816
 C         -0.6849471669       -0.7182530478        0.2335224233
 C          0.7534854507       -0.6086741906       -0.2517676575
 F          1.2634099885        0.5644136560        0.1197047391
 H         -1.5196956052        0.6275849219       -1.1168016521
 H         -0.9441584315        1.3277148301        0.2690528602
 H         -2.3904892027        0.4977218589        0.2939054181
 H         -1.1869326362       -1.6012015106       -0.1892660359
 H         -0.6867542452       -0.8413337758        1.3265096920
 H          0.8199356802       -0.6514669065       -1.3480667810
 H          1.4017220142       -1.3969480485        0.1606614895
  11
  -15.167417080000000       0.10903976999142648      !md3
 N         -1.4435139328        0.5201614028        0.1318999250
 C         -0.6902100229       -0.7199273444       -0.2163373706
 C          0.7593994072       -0.6096205825        0.2345921614
 F          1.2584520429        0.5653251968       -0.1455652636
 H         -1.4962704501        0.6325675129        1.1463518840
 H         -2.3928918494        0.4990934691       -0.2478227446
 H         -0.9452376068        1.3265597783       -0.2529848011
 H         -0.7186683709       -0.8484896642       -1.3085473550
 H         -1.1831520681       -1.5999575099        0.2223760361
 H          1.3990153240       -1.3954929600       -0.1951719380
 H          0.8518965741       -0.6549779085        1.3290880668
  11
  -15.165531050000000        1.4819227027308096E-002 !mtd10
 N         -1.9097767430        0.0244214955       -0.2805050070
 C         -0.6045794466       -0.0751008048        0.4489345497
 C          0.6197143959        0.0744128900       -0.4447682554
 F          1.7419883962       -0.0249336865        0.2742930368
 H         -1.9777088830       -0.7021032190       -0.9945501801
 H         -1.9973533844        0.9345331810       -0.7349344426
 H         -2.6928594235       -0.0872975549        0.3653561898
 H         -0.5471447389       -1.0424304356        0.9692881525
 H         -0.5648393655        0.6912589145        1.2367392461
 H          0.6430922747        1.0516738496       -0.9468760467
 H          0.6608651974       -0.7068331347       -1.2168015775
  11
  -15.165530600000000        1.4812171973889482E-002 !gc
 N         -1.9097700630        0.0239404169       -0.2805790289
 C         -0.6045793834       -0.0745522567        0.4490113754
 C          0.6197048098        0.0757671311       -0.4445769055
 F          1.7419849517       -0.0259952549        0.2741363384
 H         -1.9981359585        0.9341779733       -0.7341924214
 H         -2.6929139108       -0.0889343312        0.3650962415
 H         -1.9767027583       -0.7022756203       -0.9951911042
 H         -0.5464871139       -1.0418662335        0.9693159317
 H         -0.5654671260        0.6917722371        1.2368840822
 H          0.6437550905        1.0539778524       -0.9447995225
 H          0.6600890317       -0.7040300131       -1.2181053157
  11
  -15.165529190000001        1.4790087882129002E-002 !md6
 N         -1.9098300484        0.0233177324       -0.2806313320
 C         -0.6045846999       -0.0737691752        0.4490698592
 C          0.6197421363        0.0773059167       -0.4443518680
 F          1.7420083592       -0.0272387807        0.2739716397
 H         -2.6927685627       -0.0875600680        0.3653881343
 H         -1.9772844582       -0.7049487573       -0.9932040497
 H         -1.9979420999        0.9323441809       -0.7369913903
 H         -0.5457503046       -1.0409679538        0.9695293365
 H         -0.5662500832        0.6926888343        1.2368416734
 H          0.6448838633        1.0565470734       -0.9425452125
 H          0.6592598331       -0.7008575842       -1.2195579435
