  11
        -15.16759489
 N         -1.4512433867        0.5168872857       -0.1057588565
 C         -0.6837940994       -0.7157393513        0.2372564343
 C          0.7518222402       -0.6063506866       -0.2557939198
 F          1.2668020208        0.5623946101        0.1223818759
 H         -0.9385578428        1.3307944319        0.2422042791
 H         -2.3850678852        0.5039774499        0.3113559465
 H         -1.5440615264        0.6079856371       -1.1193976251
 H         -1.1859924180       -1.6032428123       -0.1756359640
 H         -0.6794976184       -0.8286588940        1.3313284898
 H          0.8114635569       -0.6401167476       -1.3527340914
 H          1.4002664000       -1.3995707549        0.1466734723
