11
 energy: -15.170977038876 gnorm: 0.000595898039 xtb: 6.5.1 (fef0646)
N            1.02367955009194       -0.03239520986613       -0.08528779924444
C            2.50536874650214       -0.05873442089292       -0.06452109960458
C            3.02215342202524       -1.44511624362082       -0.41241843310993
F            2.63774189455831       -2.33779953202840        0.58317561514466
H            0.67305459473226        0.89379542193881        0.18623463406757
H            0.65680178710996       -0.72981291674313        0.57596374190104
H            0.66628023634334       -0.25853010168605       -1.02233777056708
H            2.85559711023521        0.21031842287879        0.93277485175410
H            2.90413778405419        0.65116948565896       -0.78767668933852
H            4.11181103452036       -1.46683054407981       -0.44776676176243
H            2.60623383982704       -1.83735436155929       -1.34292028924037
