  16
        -25.50683901
 N          3.5694553885       -1.2188940785       -0.0141576082
 C          3.2098967495        0.2284819811        0.0061494084
 C          1.7426510507        0.4629198642        0.0034951904
 C          1.1530059350        1.6843444246       -0.0027477219
 C         -0.2720740296        1.6328534985       -0.0040095596
 C         -0.7586707185        0.3736329981        0.0015575310
 S          0.5232818807       -0.7830206660        0.0088903252
 Cl        -4.0934936379       -0.3498507213       -0.0027489174
 H          4.5875369654       -1.3667177171       -0.0116356036
 H          3.1805416459       -1.6741786421       -0.8529472303
 H          3.1743802596       -1.6976705535        0.8049777105
 H          3.6549265770        0.7330714466       -0.8589792350
 H          3.6475964631        0.7071666336        0.8899125434
 H          1.7140598076        2.6061152963       -0.0064498382
 H         -0.8959163923        2.5145711106       -0.0088658750
 H         -1.7991196543        0.1069867098        0.0016696789
