  16
        -25.42486881
 N         -1.0116933836        1.9566687723       -0.5849158422
 C          0.0727492615        1.8831289044        0.4275771481
 C          0.9699933665        0.7200667018        0.2083938142
 C          2.3261216419        0.7824356131        0.1762354927
 C          2.9498471583       -0.4783834092       -0.0521490973
 C          2.0632713800       -1.4879906256       -0.1904592668
 S          0.4384824858       -0.9194811496       -0.0431407461
 Cl        -2.9976680624       -0.6809519310        0.1011605149
 H         -0.6229431028        1.9594506697       -1.5409748725
 H         -1.5984649517        2.7994581919       -0.4743653507
 H         -1.6294198106        1.1284592791       -0.5029152968
 H         -0.3568685467        1.8247892266        1.4346874163
 H          0.6619396085        2.8076636419        0.4052223048
 H          2.8768965041        1.7018618269        0.3107004498
 H          4.0212289178       -0.6091654593       -0.1086046057
 H          2.3159194331       -2.5171865583       -0.3691249418
