  16
        -25.42486881
 N         -1.0116933836        1.9566687723       -0.5849158422
 C          0.0727492615        1.8831289044        0.4275771481
 C          0.9699933665        0.7200667018        0.2083938142
 C          2.3261216419        0.7824356131        0.1762354927
 C          2.9498471583       -0.4783834092       -0.0521490973
 C          2.0632713800       -1.4879906256       -0.1904592668
 S          0.4384824858       -0.9194811496       -0.0431407461
 Cl        -2.9976680624       -0.6809519310        0.1011605149
 H         -0.6229431028        1.9594506697       -1.5409748725
 H         -1.5984649517        2.7994581919       -0.4743653507
 H         -1.6294198106        1.1284592791       -0.5029152968
 H         -0.3568685467        1.8247892266        1.4346874163
 H          0.6619396085        2.8076636419        0.4052223048
 H          2.8768965041        1.7018618269        0.3107004498
 H          4.0212289178       -0.6091654593       -0.1086046057
 H          2.3159194331       -2.5171865583       -0.3691249418
  16
        -25.42470743
 N         -1.0145003970        1.9526806410       -0.5840583955
 C          0.0754476280        1.8858000503        0.4229417187
 C          0.9714979610        0.7212226781        0.2068867649
 C          2.3279497142        0.7808830270        0.1836406823
 C          2.9506128415       -0.4802395168       -0.0459493188
 C          2.0629443613       -1.4875318873       -0.1938172785
 S          0.4384890459       -0.9167627105       -0.0518343890
 Cl        -2.9987585998       -0.6819936251        0.1070013864
 H         -1.6293474683        1.1273456821       -0.4947681476
 H         -0.6308897264        1.9498105906       -1.5414124251
 H         -1.6035209873        2.7991931088       -0.4752923829
 H         -0.3485914791        1.8346661504        1.4327848366
 H          0.6646007441        2.8100660721        0.3906141389
 H          2.8796179586        1.6988266045        0.3244671753
 H          4.0220840430       -0.6129589246       -0.0959329270
 H          2.3143964427       -2.5164771520       -0.3755832594
  16
        -25.42462693
 N         -1.0108530283        1.9578653478       -0.5859964855
 C          0.0702431661        1.8809738338        0.4298589013
 C          0.9684909353        0.7189599001        0.2092501051
 C          2.3244332497        0.7829405401        0.1733668442
 C          2.9489560770       -0.4775436733       -0.0547578215
 C          2.0632899614       -1.4884668309       -0.1893241780
 S          0.4381696669       -0.9213304953       -0.0397421352
 Cl        -2.9954169244       -0.6790813202        0.0991470722
 H         -1.5986284920        2.8006515304       -0.4741307961
 H         -1.6261912756        1.1325687502       -0.5090996875
 H         -0.6177900508        1.9642772276       -1.5439470885
 H         -0.3626761838        1.8186578692        1.4353257164
 H          0.6591690356        2.8057774062        0.4129396470
 H          2.8745613178        1.7031894597        0.3047794832
 H          4.0203960893       -0.6071332105       -0.1128791506
 H          2.3168224139       -2.5177385923       -0.3662770100
  16
        -25.42428324
 N         -1.2800659429        1.8387660177        0.5592297399
 C         -0.1254555738        1.7860238732       -0.3771048543
 C          0.7090297425        0.5748921930       -0.1773594283
 C          0.2491318524       -0.7011169791       -0.1573027537
 C          1.2710217984       -1.6736416710        0.0541318489
 C          2.5007828727       -1.1299773220        0.1930212746
 S          2.4310795284        0.5911807461        0.0672025518
 Cl        -3.2242781970       -1.0058500316       -0.1502258814
 H         -1.8427216665        2.6975043664        0.4413194815
 H         -0.9575534909        1.8025257296        1.5382064476
 H         -1.9072376156        1.0261861347        0.4110597564
 H          0.4993163447        2.6777365659       -0.2482131221
 H         -0.4813210283        1.8142908818       -1.4137441837
 H         -0.7949415731       -0.9502683374       -0.2772202235
 H          1.0771978528       -2.7360009291        0.1000143085
 H          3.4097881684       -1.6782157427        0.3603335326
  16
        -25.42410261
 N         -1.2948642504        1.8121736922       -0.6096773754
 C         -0.1166408715        1.8018338850        0.2982316353
 C          0.7129512891        0.5821109366        0.1336121223
 C          0.2531842536       -0.6931566085        0.1831733972
 C          1.2700272378       -1.6750844803       -0.0084275953
 C          2.4957678534       -1.1392457660       -0.2019196863
 S          2.4284521130        0.5859268974       -0.1537612604
 Cl        -3.2189913963       -0.9963608029        0.2739107316
 H         -1.9152802796        1.0099998587       -0.4093828378
 H         -0.9974199506        1.7311220962       -1.5939048889
 H         -1.8569973379        2.6783861303       -0.5165439801
 H         -0.4458446952        1.8784590184        1.3412833294
 H          0.5042046327        2.6860782685        0.1121617728
 H         -0.7877338546       -0.9356856513        0.3390538018
 H          1.0756224319       -2.7382957015       -0.0003329061
 H          3.4007850888       -1.6950691571       -0.3659873426
  16
        -25.42357563
 N         -1.3774877098        1.6701276917        0.7114633619
 C         -0.0437690945        1.8958288127        0.0954636971
 C          0.7611654466        0.6503441263        0.0594369571
 C          0.6968983706       -0.3010434069       -0.9061340295
 C          1.5697187457       -1.4058367422       -0.6751599964
 C          2.2882936099       -1.2862515250        0.4636145287
 S          1.9096150005        0.1882502410        1.2797710983
 Cl        -2.9659217960       -0.8285292240       -1.1137777489
 H         -1.9546145221        2.5272374000        0.7302678512
 H         -1.2776544170        1.3321445117        1.6807304303
 H         -1.8992112105        0.9427704996        0.1872894698
 H          0.5023451830        2.6642747701        0.6552178060
 H         -0.1594323358        2.2875908010       -0.9220615614
 H          0.0399762527       -0.2282620229       -1.7604366898
 H          1.6440657983       -2.2516555746       -1.3439656939
 H          3.0022783098       -2.0017641611        0.8285035134
  16
        -25.42349718
 N         -1.3600196450        1.7021028583       -0.6772545829
 C         -0.0382696852        1.9048313686       -0.0284017527
 C          0.7635030739        0.6568348649       -0.0174951098
 C          0.7025029450       -0.3105772742        0.9322790406
 C          1.5709877248       -1.4134587136        0.6772150485
 C          2.2829831195       -1.2764525486       -0.4637287698
 S          1.9029765381        0.2124107273       -1.2527263642
 Cl        -2.9720468075       -0.8682458667        1.0219912472
 H         -1.2417807757        1.3988743002       -1.6566504216
 H         -1.9366088667        2.5589232093       -0.6760581329
 H         -1.8910067061        0.9563691721       -0.1894903645
 H         -0.1731565086        2.2635462684        0.9989683568
 H          0.5198501139        2.6898045614       -0.5520916914
 H          0.0508688947       -0.2509520417        1.7916439032
 H          1.6478681642       -2.2699870794        1.3319509675
 H          2.9935558232       -1.9870354112       -0.8445487555
  16
        -25.42336256
 N         -1.3608838175        1.7027568030       -0.6750166681
 C         -0.0401772487        1.9026881005       -0.0231375027
 C          0.7615163798        0.6546186784       -0.0151793759
 C          0.6794092932       -0.3280865286        0.9171210584
 C          1.5535137763       -1.4269712938        0.6639181754
 C          2.2909873121       -1.2716170922       -0.4583416958
 S          1.9287379895        0.2300545925       -1.2313093141
 Cl        -2.9807789171       -0.8729430640        1.0077570028
 H         -1.8915491858        0.9583666692       -0.1921392722
 H         -1.2410321134        1.4025779533       -1.6544069205
 H         -1.9393626117        2.5632787172       -0.6723744368
 H         -0.1767490840        2.2577007734        1.0052910438
 H          0.5189502203        2.6894908138       -0.5429854718
 H          0.0083764578       -0.2819771840        1.7622768571
 H          1.6154901066       -2.2945170918        1.3056089240
 H          3.0096508651       -1.9764593187       -0.8346386632
  16
        -25.42321326
 N         -1.3817364517        1.6737261290        0.7169568846
 C         -0.0358818266        1.9101924187        0.1323840813
 C          0.7637263009        0.6618782449        0.0785105338
 C          0.7796186518       -0.2212216110       -0.9519389967
 C          1.6240062946       -1.3481224866       -0.7221025511
 C          2.2408933002       -1.3133855928        0.4802764115
 S          1.7990955433        0.1064216920        1.3593080904
 Cl        -2.9037167590       -0.8087076367       -1.1796742214
 H         -1.8901978578        0.9587831557        0.1699925335
 H         -1.9589287400        2.5298268129        0.7405833552
 H         -1.3013336362        1.3151223010        1.6849970315
 H          0.5026473087        2.6608455215        0.7227744983
 H         -0.1307704856        2.3296361037       -0.8762346402
 H          0.2001461556       -0.0840229108       -1.8531247497
 H          1.7531605485       -2.1471749113       -1.4383951116
 H          2.9171374614       -2.0593170959        0.8559857387
  16
        -25.42186330
 N         -1.1281603686        0.4109137144       -0.6451063162
 C         -0.2808218899        0.3686414026        0.5750245543
 C          1.1006983938       -0.0767520997        0.2690402524
 C          2.1780051447        0.7321887581        0.1030554711
 C          3.3786125599        0.0241579439       -0.2022816851
 C          3.2039434274       -1.3147335190       -0.2681842836
 S          1.5586471972       -1.7379966933        0.0441726712
 Cl        -4.3642296115        1.4260598695        0.0865495685
 H         -1.1734855177       -0.5202229601       -1.0877784508
 H         -0.7333137899        1.0601647060       -1.3426036696
 H         -2.0998505999        0.7144519606       -0.4390912271
 H         -0.7232671138       -0.3099204528        1.3139857402
 H         -0.2544405439        1.3564428356        1.0501732423
 H          2.1257629265        1.8075818738        0.1900510586
 H          4.3290677923        0.5125036468       -0.3648066167
 H          3.9724980363       -2.0340089002       -0.4846308983
  16
        -25.42169849
 N         -1.1290245684        0.4079395147       -0.6445416491
 C         -0.2801067240        0.3715154837        0.5746917420
 C          1.1010333946       -0.0752282787        0.2689295950
 C          2.1796420948        0.7324030034        0.1049460320
 C          3.3794011227        0.0230976275       -0.2007661034
 C          3.2027997596       -1.3154254262       -0.2689491134
 S          1.5567215631       -1.7367814167        0.0418567888
 Cl        -4.3631252994        1.4252631125        0.0875959150
 H         -2.0972524490        0.7112279611       -0.4391891106
 H         -1.1748103419       -0.5246615697       -1.0824028418
 H         -0.7337529549        1.0564966199       -1.3484996836
 H         -0.7214853673       -0.3035693926        1.3174699541
 H         -0.2531483997        1.3615696814        1.0451002894
 H          2.1289431527        1.8077319119        0.1936321526
 H          4.3306867188        0.5102976187       -0.3618652287
 H          3.9704179226       -2.0354795888       -0.4861249941
  16
        -25.42151660
 N         -1.1056916886        0.5075884906       -0.6599248673
 C         -0.3072074976        0.3002702618        0.5763358583
 C          1.0835733283       -0.1140819733        0.2695913551
 C          2.1301160123        0.7243215119        0.0607327002
 C          3.3508275080        0.0471811463       -0.2349353518
 C          3.2218296429       -1.2984017933       -0.2508004454
 S          1.5959652863       -1.7661335127        0.0975294165
 Cl        -4.3700734063        1.4327477089        0.0673200344
 H         -1.1351579787       -0.3572746999       -1.2222585438
 H         -0.6832125561        1.2401131930       -1.2505907127
 H         -2.0842536127        0.7879741130       -0.4537085603
 H         -0.7814284112       -0.4639768240        1.2034499447
 H         -0.2947740798        1.2179003603        1.1763340956
 H          2.0412591718        1.7997086765        0.1099145617
 H          4.2817765322        0.5615906641       -0.4272134420
 H          4.0121940646       -1.9983837697       -0.4513754988
  16
        -25.42140930
 N         -1.1142164026        0.4788739113       -0.6582940688
 C         -0.3080096758        0.2980139538        0.5770842356
 C          1.0829535687       -0.1155727388        0.2700294714
 C          2.1306602702        0.7230416870        0.0676930272
 C          3.3511328562        0.0464409036       -0.2301009775
 C          3.2208442041       -1.2988965239       -0.2540951536
 S          1.5939494735       -1.7670290932        0.0890138668
 Cl        -4.3637715425        1.4495524573        0.0705227841
 H         -2.0878550176        0.7640036160       -0.4525832270
 H         -1.1479074744       -0.3973000123       -1.2012563944
 H         -0.6932857922        1.2009138632       -1.2697783582
 H         -0.7751971183       -0.4564018970        1.2211635049
 H         -0.2963701006        1.2268249408        1.1596452807
 H          2.0428564782        1.7982231144        0.1229377906
 H          4.2829012192        0.5610127652       -0.4179363704
 H          4.0107434963       -1.9985805222       -0.4575243580
  16
        -25.41993977
 N         -1.0024927608        2.1208734756        0.3981909301
 C          0.0779799625        1.9268765948       -0.6040712253
 C          0.9140023988        0.7427584549       -0.2888269297
 C          1.9451265591        0.7180861410        0.5928948408
 C          2.5600232776       -0.5639448670        0.7130957725
 C          1.9910143911       -1.5025638480       -0.0760218454
 S          0.6853396448       -0.8329500700       -0.9869995934
 Cl        -2.8881916484       -0.7993488595        0.5617558977
 H         -1.6117098678        2.9243943948        0.1717999922
 H         -0.6076964178        2.2760984752        1.3384319831
 H         -1.5974012209        1.2731133155        0.4540174530
 H          0.7101898949        2.8211422950       -0.6570353543
 H         -0.3571287144        1.8045367673       -1.6029702732
 H          2.2620544267        1.5866451424        1.1513934070
 H          3.3950192219       -0.7609397434        1.3705361904
 H          2.2957650179       -2.5310301306       -0.1412650837
  16
        -25.41969657
 N         -1.0016297148        2.1191071658        0.4003434846
 C          0.0782147965        1.9261923361       -0.6027874339
 C          0.9153304977        0.7426512604       -0.2882933658
 C          1.9502352641        0.7197798488        0.5890417960
 C          2.5649412700       -0.5622588115        0.7099722950
 C          1.9921120183       -1.5026345211       -0.0742836644
 S          0.6830613579       -0.8347075300       -0.9816273953
 Cl        -2.8913174790       -0.7980370558        0.5572227685
 H         -0.6058178685        2.2718318600        1.3413424610
 H         -1.5948912684        1.2751505707        0.4545891467
 H         -1.6122206781        2.9263717722        0.1753659480
 H          0.7096425640        2.8209884612       -0.6559615195
 H         -0.3575893353        1.8036408302       -1.6013559790
 H          2.2700205450        1.5895327107        1.1440413047
 H          3.4028000115       -0.7579059432        1.3641715326
 H          2.2963832854       -2.5313461190       -0.1378603981
  16
        -25.41969006
 N         -0.9890223067        2.1224320586       -0.3752411591
 C          0.0698662444        1.9142156665        0.6469568745
 C          0.9171151293        0.7388814544        0.3287220207
 C          2.0026122980        0.7456825374       -0.4856014646
 C          2.6145555499       -0.5354666341       -0.6280542418
 C          1.9890892524       -1.5047056347        0.0768220118
 S          0.6327572035       -0.8657069752        0.9342164296
 Cl        -2.8871597938       -0.7850166639       -0.6286568494
 H         -1.6036687143        2.9221119354       -0.1499161565
 H         -1.5797722208        1.2788780669       -0.4565394635
 H         -0.5724338080        2.2926567685       -1.3079646907
 H         -0.3863985879        1.7724942595        1.6338558723
 H          0.6970631196        2.8096907145        0.7296093967
 H          2.3612167535        1.6364718894       -0.9802285519
 H          3.4884948758       -0.7095290081       -1.2397679509
 H          2.2813123099       -2.5382851534        0.1112761683
  16
        -25.41959756
 N         -0.9847528727        2.0457009055        0.4690546351
 C          0.1192499653        1.9265847130       -0.5188076036
 C          0.9823431238        0.7517335389       -0.2426701977
 C          2.1751665569        0.7789191021        0.4046433450
 C          2.7789164839       -0.5069603671        0.5386537568
 C          2.0400117047       -1.5001675430       -0.0044192933
 S          0.5822873176       -0.8788995965       -0.6915820486
 Cl        -3.0311178065       -0.7708550340        0.3257380410
 H         -0.6109827947        2.1288744953        1.4275768398
 H         -1.5821614814        1.2031821480        0.4468290972
 H         -1.5892681682        2.8686951931        0.2890280552
 H          0.7268610450        2.8393349601       -0.5164714860
 H         -0.2930644990        1.8413395641       -1.5311645492
 H          2.6195976525        1.6882349275        0.7820025565
 H          3.7306012693       -0.6665375523        1.0255950784
 H          2.3064035540       -2.5412215803       -0.0153981052
  16
        -25.41874070
 N         -1.2212373089        1.8259269910        0.6881221005
 C          0.1158369212        2.0198506860        0.0692578872
 C          0.9249303811        0.7746112554        0.0633149055
 C          2.0184923619        0.5559110679       -0.7114371366
 C          2.6090466939       -0.7284574294       -0.5174200252
 C          1.9629516165       -1.4764034766        0.4045157739
 S          0.6141181433       -0.6176151606        1.0574291892
 Cl        -2.7753217381       -0.7847780520       -1.0054967886
 H         -1.7996517205        2.6821697238        0.6613762938
 H         -1.1283628288        1.5351295634        1.6731263885
 H         -1.7373576921        1.0724600689        0.1967883090
 H          0.6643386654        2.8054783080        0.6022521410
 H         -0.0020791103        2.3785713477       -0.9602422654
 H          2.4006153294        1.2874696767       -1.4083841951
 H          3.4842837108       -1.0652502613       -1.0548356700
 H          2.2369942677       -2.4714814813        0.7038594796
  16
        -25.41768945
 N         -1.1459812449        1.8387585129        0.6691011602
 C          0.1522743453        2.0020981321       -0.0353694478
 C          0.9892990204        0.7762362919        0.0121718887
 C          2.2330068271        0.6622089698       -0.5208441021
 C          2.8198379568       -0.6250290383       -0.3346345177
 C          2.0193073493       -1.4814771741        0.3379285965
 S          0.5240845205       -0.7251452293        0.7563653451
 Cl        -2.9479304866       -0.7659915348       -0.7855888175
 H         -1.7256196696        2.6938566195        0.6337356420
 H         -0.9944254020        1.5979378237        1.6603121162
 H         -1.6927061041        1.0645104185        0.2480849565
 H          0.7106484029        2.8369519033        0.4046800655
 H         -0.0256833054        2.2762183223       -1.0820110527
 H          2.7276794801        1.4728598191       -1.0357347450
 H          3.8048237280       -0.8848681122       -0.6959942854
 H          2.2624406740       -2.4982898074        0.5866687216
