16
 energy: -25.513599363504 gnorm: 0.000361570925 xtb: 6.5.1 (fef0646)
N            1.33022928835409       -0.57922725731180        0.13146474350383
C            2.66897784594014       -0.04473208903264       -0.20510534973960
C            3.01900650661528        1.07372704557211        0.71449231732745
C            3.34568772979978        2.35852628407517        0.41929842837552
C            3.58733688957223        3.14482565179717        1.56946666070784
C            3.43572460994690        2.44893806612931        2.72342428810331
S            3.00287464778386        0.81981229378984        2.43306954076523
Cl          -0.54007464383840        1.81916472142974        0.30250415640456
H            1.02471034025012       -1.28151837152360       -0.54600048988041
H            0.63057430526156        0.20866088443458        0.14075360643636
H            1.33579106188092       -0.97874317986571        1.07443813302874
H            2.65833311249472        0.33634697168610       -1.22610446353288
H            3.40444855901696       -0.84798935521290       -0.11926565035042
H            3.40485281207809        2.74430696235366       -0.58183858150317
H            3.85286368287411        4.18663785437036        1.53666726647824
H            3.54583325196867        2.79128351730950        3.73338539387567
