  47
        -77.65517439
 N         -8.2166291582        2.1021772827       -0.1239750505
 C         -8.5736501150        0.8457731524        0.6002368064
 C         -8.0970714777       -0.4197707627       -0.1164060749
 C         -6.6199587267       -0.6137419540       -0.0825246721
 C         -5.9700691032       -1.8142077139       -0.0673717608
 C         -4.5622875239       -1.7116394121       -0.0471339848
 C         -4.0943687880       -0.4182069950       -0.0486743475
 C         -2.7295016483       -0.0181696298       -0.0312652170
 C         -2.2631948752        1.2816021174       -0.0263227513
 C         -0.8699502287        1.4062721042       -0.0109532641
 C         -0.2065726916        2.7379004169       -0.0026612026
 C         -0.2023349109        0.1753467351       -0.0058879308
 C          1.2002040182       -0.0376539169        0.0025121863
 C          1.8609812347       -1.2711287234        0.0125716197
 C          1.2148225310       -2.5064815649        0.0177469789
 N          0.6623863959       -3.5299791055        0.0218714601
 C          3.2826915169       -1.1662478284        0.0159469720
 C          4.1039193761       -2.2944703519        0.0249684907
 N          4.8017642762       -3.2244606321        0.0326970744
 C          3.7561891822        0.1481468792        0.0083050259
 C          5.1207671144        0.5635339232        0.0071359611
 C          5.5999190761        1.8671972237       -0.0021647965
 C          4.7557746156        3.0925187495       -0.0132909421
 C          7.0137456678        1.9399901617       -0.0008733411
 C          7.6334942289        0.7349314795        0.0090895354
 S          6.4863168313       -0.5358400711        0.0170772857
 S          2.3959216690        1.2212916330       -0.0001501865
 S         -1.3872280402       -1.1106954370       -0.0133991070
 S         -5.4556353199        0.6651439979       -0.0770852262
 H         -8.5152819564        2.9380389063        0.3918975136
 H         -8.6526879379        2.1250756103       -1.0526440005
 H         -7.2013865282        2.1567882114       -0.2564731992
 H         -9.6615931782        0.8175821782        0.7381886519
 H         -8.1445909916        0.8736279237        1.6086459975
 H         -8.4247759087       -0.3946141943       -1.1607847914
 H         -8.5750359978       -1.3022668011        0.3251176626
 H         -6.4902296150       -2.7598669560       -0.0736501384
 H         -3.9050773544       -2.5674281217       -0.0324416862
 H         -2.9271169142        2.1307991942       -0.0339407075
 H          0.4167207334        2.8638581510       -0.8877915463
 H          0.4212978275        2.8506643061        0.8815480756
 H         -0.9398664979        3.5446526229        0.0055956314
 H          4.1183238482        3.1298712827        0.8704476827
 H          4.1205664172        3.1153157907       -0.8991594858
 H          5.3680775274        3.9940434255       -0.0199559895
 H          7.5480057643        2.8779658782       -0.0075177231
 H          8.6956704192        0.5787877981        0.0116181820
