22
 energy: -30.702322657406 gnorm: 0.000651158044 xtb: 6.5.1 (fef0646)
N            1.07740736792809       -0.19725063735377        0.23909108579777
C            2.53651618649741       -0.11515762535032        0.19883747168949
C            3.01903702338454       -0.04145231591106       -1.25253537255552
C            4.50429498910963        0.18409226473436       -1.29178734236848
C            5.38671624562915       -0.88801157606111       -1.28072448244373
C            6.75425063594208       -0.67587168557247       -1.27602239691636
C            7.25594175532062        0.61413718875166       -1.28058555309579
C            6.38378068335982        1.68950362813599       -1.29090346618575
C            5.01710958302657        1.47479189940692       -1.29420134860543
Cl          -0.03957351197411        2.22814232160148       -0.97675195945772
H            0.73760131655524       -0.24346208269376        1.19320711830642
H            0.74701563668060       -1.01273178838049       -0.26734930133910
H            0.47946889740930        1.08814857602827       -0.41714534706580
H            3.01664312853675       -0.96747689374559        0.70047140351516
H            2.82982991946114        0.79647118655237        0.72438287692208
H            2.49864949032335        0.77874127805919       -1.74746531516998
H            2.76626841458555       -0.97276846470446       -1.76479193481471
H            5.00057489993822       -1.89810620635435       -1.28139349149088
H            7.42963305141726       -1.51906738534095       -1.26980068224088
H            8.32307224155065        0.78085888369536       -1.27822001303757
H            6.77019547071729        2.69850952792485       -1.29735507218881
H            4.33786657459890        2.31487990657723       -1.30432687725432
