  40
        -67.16770162
 N         -6.2072049211       -3.6498273973        0.1082326913
 C         -7.0550048272       -2.6385607303       -0.5869625139
 C         -7.0898069904       -1.2932542609        0.1401380524
 C         -5.8029100188       -0.5396648979        0.0892072585
 C         -5.6825169575        0.8136782374        0.0575410738
 C         -4.3400422768        1.2782115511        0.0313998839
 C         -3.4040857801        0.2814208348        0.0444214607
 C         -1.9744094689        0.4538694230        0.0271788674
 C         -1.3077366737        1.6502641302       -0.0008609184
 C          0.0973260206        1.5254769280       -0.0107096107
 C          0.5419051896        0.2304611009        0.0091382354
 C          1.9180731759       -0.1809593438        0.0060648074
 C          2.3626131077       -1.4764814041        0.0227494583
 C          3.7683528157       -1.6006103123        0.0167348168
 C          4.4330902893       -0.4039704259       -0.0044736304
 C          5.8633289538       -0.2408668804       -0.0132438158
 C          6.5271540918        0.9535664142       -0.0364361576
 C          7.9407258360        0.8226266376       -0.0392407299
 C          8.3606280390       -0.4631286162       -0.0185591156
 S          7.0196293401       -1.5520325701        0.0049333833
 S          3.2823789172        0.9081303658       -0.0189295589
 S         -0.8230812870       -0.8571366019        0.0399754351
 S         -4.2201573160       -1.2582859868        0.0858533257
 Cl        -3.2073535475        4.5761951987       -0.0374875019
 H         -5.2579210576       -3.2722952456        0.2256399357
 H         -6.1408886694       -4.5319583195       -0.4160532444
 H         -6.5740425472       -3.8578862274        1.0455013333
 H         -8.0702446757       -3.0384841474       -0.6977265005
 H         -6.6838972370       -2.4874034356       -1.6071531358
 H         -7.3623646456       -1.4526902169        1.1885755137
 H         -7.8820049933       -0.6608419939       -0.2780569013
 H         -6.5348901483        1.4753645630        0.0582178934
 H         -4.0799807602        2.3249590395        0.0068214655
 H         -1.8144079561        2.6024672595       -0.0129378969
 H          0.7686453643        2.3692009152       -0.0310145748
 H          1.6912902094       -2.3202812132        0.0394518626
 H          4.2812000142       -2.5491617723        0.0284689038
 H          6.0165324128        1.9034011961       -0.0508392127
 H          8.6116053087        1.6685356099       -0.0561919845
 H          9.3852433070       -0.7829980420       -0.0165849397
