  40
        -67.08447893
 N         -6.9278918025        0.1748225900        1.8801383158
 C         -7.5406163240       -0.8571871206        0.9998730013
 C         -6.9202705995       -0.8428604815       -0.3943299445
 C         -5.4430334856       -1.0186855417       -0.3605038962
 C         -4.7947125430       -2.2124415879       -0.3397188122
 C         -3.3815718661       -2.0927495895       -0.2870940498
 C         -2.9415485804       -0.7996126776       -0.2644440369
 C         -1.5623926584       -0.3847070229       -0.2090028428
 C         -1.1239703060        0.9120622833       -0.1783917896
 C          0.2831714478        1.0395640380       -0.1244527499
 C          0.9479183557       -0.1585280772       -0.1134393167
 C          2.3772473082       -0.3208625889       -0.0626831976
 C          3.0441238295       -1.5178112672       -0.0582501253
 C          4.4509939038       -1.3880976847       -0.0034492928
 C          4.8868762389       -0.0908078628        0.0354718596
 C          6.2650144039        0.3291085090        0.0948301529
 C          6.6998586278        1.6248875686        0.1360992893
 C          8.1144334941        1.7511232265        0.1913071132
 C          8.7584087888        0.5603123713        0.1922031967
 S          7.6359224258       -0.7485010710        0.1250230010
 S          3.5225504326        0.9891274289        0.0026916022
 S         -0.1998822801       -1.4667018421       -0.1703390727
 S         -4.2997580882        0.2898505687       -0.3110036404
 Cl        -6.6021936597        2.7488250634       -0.3500296256
 H         -6.9342860625        1.0930745126        1.3998158379
 H         -5.9393383153       -0.0485996008        2.0712369832
 H         -7.4154360080        0.2734403251        2.7858982551
 H         -8.6239794758       -0.6947140906        0.9367676767
 H         -7.4124864746       -1.8459435492        1.4562257091
 H         -7.1462480156        0.1090486579       -0.8882194868
 H         -7.3657462863       -1.6199310741       -1.0273839062
 H         -5.3109811310       -3.1607208098       -0.3568074006
 H         -2.7104639013       -2.9376827318       -0.2647720782
 H         -1.7988084758        1.7541435328       -0.1942788565
 H          0.7953094952        1.9888799674       -0.0949269057
 H          2.5336431707       -2.4679984400       -0.0939419337
 H          5.1273279036       -2.2291925773        0.0072466813
 H          6.0245736668        2.4668541714        0.1273036404
 H          8.6218075556        2.7045000684        0.2288270031
 H          9.8240126809        0.4281669113        0.2293574223
