  15
        -18.07431926
 O         -1.2644731369       -0.9575384582       -0.0273355836
 C         -1.3298487340        0.4402232527        0.1570968584
 C         -0.0596927291        1.1295784344       -0.3325712741
 C          1.1966664339        0.5600143495        0.3193770185
 N          1.4776953892       -0.8383091405       -0.1113775786
 H         -2.1150967151       -1.3980186884        0.1621377280
 H         -1.4837557288        0.6273668723        1.2293463326
 H         -2.2131737961        0.8201505789       -0.3776752709
 H         -0.1274353617        2.2113739709       -0.1619767811
 H          0.0157170603        0.9971096931       -1.4177688566
 H          1.0884049967        0.5863713527        1.4114558809
 H          2.0712577647        1.1840198788        0.0887365076
 H          0.6298113484       -1.4177464961        0.0281802472
 H          2.2546114295       -1.2618988449        0.4167897693
 H          1.7149576177       -0.8795696389       -1.1123626699
  15
        -18.06695346
 O         -1.2925950051       -0.8791579377       -0.3843453306
 C         -1.2215164708        0.2875775366        0.4081390001
 C         -0.0807171526        1.2048415650       -0.0317400519
 C          1.1560204222        0.4068691904       -0.4482858839
 N          1.4440817521       -0.7429361991        0.4533785494
 H         -1.8846773124       -0.7796037649       -1.1550958200
 H         -1.0560875015       -0.0714552891        1.4341337573
 H         -2.1981864455        0.7949404170        0.4187251971
 H          0.1694121320        1.9023239673        0.7767778887
 H         -0.4108205577        1.8320006671       -0.8693368285
 H          2.0380153548        1.0590860355       -0.5132537523
 H          1.0054557062        0.0057745299       -1.4601612575
 H          1.5998977406       -0.4310777837        1.4260245870
 H          2.2821686062       -1.2624662150        0.1541402917
 H          0.6475908138       -1.4027993839        0.4452453991
  15
        -18.06577648
 O         -1.2714919102       -0.8671865500       -0.3879677864
 C         -1.2419605879        0.3108095287        0.3892658239
 C         -0.0701711518        1.2071328829       -0.0245066235
 C          1.1360943115        0.3879843368       -0.4787598624
 N          1.4663265030       -0.7287947090        0.4471914085
 H         -2.1207214863       -1.3455185745       -0.3205517276
 H         -1.1503655813        0.0002567658        1.4399260110
 H         -2.2029240858        0.8374622317        0.2877713892
 H          0.2066964010        1.8740856043        0.8007387463
 H         -0.3849863206        1.8656250054       -0.8447001180
 H          2.0165041162        1.0309529267       -0.6162348883
 H          0.9199515742       -0.0486571536       -1.4643747498
 H          0.6658362498       -1.3871989416        0.4964043529
 H          1.6652620858       -0.3849719698        1.3971819249
 H          2.2888027956       -1.2609790800        0.1263867850
