  15
  -18.074319259999999       0.17250752056951849      !mtd6
 O         -1.2644731369       -0.9575384582       -0.0273355836
 C         -1.3298487340        0.4402232527        0.1570968584
 C         -0.0596927291        1.1295784344       -0.3325712741
 C          1.1966664339        0.5600143495        0.3193770185
 N          1.4776953892       -0.8383091405       -0.1113775786
 H         -2.1150967151       -1.3980186884        0.1621377280
 H         -1.4837557288        0.6273668723        1.2293463326
 H         -2.2131737961        0.8201505789       -0.3776752709
 H         -0.1274353617        2.2113739709       -0.1619767811
 H          0.0157170603        0.9971096931       -1.4177688566
 H          1.0884049967        0.5863713527        1.4114558809
 H          2.0712577647        1.1840198788        0.0887365076
 H          0.6298113484       -1.4177464961        0.0281802472
 H          2.2546114295       -1.2618988449        0.4167897693
 H          1.7149576177       -0.8795696389       -1.1123626699
  15
  -18.074316419999999       0.17198986655073661      !mtd2
 O         -1.2647699108       -0.9574531016        0.0084125504
 C         -1.3268747425        0.4394404006       -0.1838162647
 C         -0.0657602799        1.1313319979        0.3253108848
 C          1.2022682014        0.5581047695       -0.3003258884
 N          1.4755399303       -0.8375402353        0.1438594676
 H         -2.1114824211       -1.3988889836       -0.1957664446
 H         -2.2200230795        0.8218743449        0.3334093256
 H         -1.4612936416        0.6212270380       -1.2591891305
 H         -0.0103050029        1.0050333452        1.4121624284
 H         -0.1301551031        2.2124306503        0.1473133410
 H          2.0725949829        1.1837133706       -0.0577434319
 H          1.1137334314        0.5778616775       -1.3942308621
 H          0.6299570385       -1.4175678271       -0.0066851328
 H          1.6955823535       -0.8726245987        1.1488498298
 H          2.2614653153       -1.2647523379       -0.3680939283
  15
  -18.074277240000001       0.16500495203570148      !mtd3
 O         -1.2639614886       -0.9576892220       -0.0270607738
 C         -1.3298788299        0.4401452849        0.1568252038
 C         -0.0596901339        1.1298705483       -0.3323360783
 C          1.1966331666        0.5599958358        0.3194300193
 N          1.4770248268       -0.8384425573       -0.1113892895
 H         -2.1146419312       -1.3983092222        0.1618352566
 H         -1.4843369258        0.6274569341        1.2289701285
 H         -2.2130644022        0.8196304852       -0.3784839632
 H         -0.1274681665        2.2115472066       -0.1609560233
 H          0.0158695963        0.9981193393       -1.4176118376
 H          1.0884866865        0.5864563841        1.4115323596
 H          2.0714332773        1.1836673542        0.0887068999
 H          1.7171553999       -0.8798732532       -1.1153911717
 H          0.6312537183       -1.4143921292        0.0257166406
 H          2.2525323727       -1.2632284384        0.4181478853
  15
  -18.074273949999998       0.16443149254295641      !mtd3
 O         -1.2639897968       -0.9576824871       -0.0278312298
 C         -1.3296276753        0.4399791870        0.1573994072
 C         -0.0598376786        1.1299503401       -0.3324132738
 C          1.1968914688        0.5603603197        0.3187414741
 N          1.4766396928       -0.8385787173       -0.1108331362
 H         -2.1145759441       -1.3984429896        0.1611017680
 H         -1.4830675397        0.6263545675        1.2298511616
 H         -2.2132817909        0.8199519168       -0.3767705232
 H         -0.1277240268        2.2116380802       -0.1611126282
 H          0.0151697251        0.9981407201       -1.4177304047
 H          1.0897426668        0.5878981515        1.4109146174
 H          2.0716096542        1.1836363010        0.0866240387
 H          2.2551985627       -1.2646577643        0.4203383614
 H          1.7149889952       -0.8806545755       -1.1114058432
 H          0.6306480052       -1.4143194590        0.0274395494
  15
  -18.074273750000000       0.16439669611400065      !mtd4
 O         -1.2643254219       -0.9575465188        0.0081710245
 C         -1.3268886826        0.4393655147       -0.1836346326
 C         -0.0657460730        1.1315501705        0.3250959684
 C          1.2021784744        0.5580423510       -0.3005042022
 N          1.4750056958       -0.8376326423        0.1439590963
 H         -2.1110749549       -1.3992809708       -0.1951755071
 H         -2.2199758639        0.8214168949        0.3340405950
 H         -1.4619338055        0.6214515943       -1.2589049160
 H         -0.0100865405        1.0056085557        1.4119820263
 H         -0.1301943036        2.2125782391        0.1467346935
 H          2.0726705219        1.1834211011       -0.0579547226
 H          1.1136055658        0.5777300503       -1.3944130997
 H          1.6977597978       -0.8726799238        1.1522112549
 H          2.2592925344       -1.2657461760       -0.3694298241
 H          0.6314454032       -1.4143893023       -0.0040934728
  15
  -18.074255699999998       0.16128644875114931      !mtd4
 O         -1.2644201540       -0.9575861660        0.0090090367
 C         -1.3264791799        0.4391399638       -0.1845562522
 C         -0.0659843551        1.1316066510        0.3252432241
 C          1.2025998574        0.5585794680       -0.2994438895
 N          1.4744352993       -0.8378140357        0.1432281809
 H         -2.1112260066       -1.3994074277       -0.1939982938
 H         -2.2202507249        0.8219532564        0.3312992399
 H         -1.4598913439        0.6200056879       -1.2602004505
 H         -0.0112110817        1.0055557768        1.4121524114
 H         -0.1306245782        2.2126481332        0.1470191323
 H          2.0729159386        1.1833499262       -0.0546871473
 H          1.1156837771        0.5799243511       -1.3934458903
 H          2.2636211739       -1.2662256207       -0.3700061109
 H          0.6318149605       -1.4147900964       -0.0083237532
 H          1.6930447944       -0.8741397167        1.1486351475
  15
  -18.066953460000001        7.1075631935553791E-005 !mtd1
 O         -1.2925950051       -0.8791579377       -0.3843453306
 C         -1.2215164708        0.2875775366        0.4081390001
 C         -0.0807171526        1.2048415650       -0.0317400519
 C          1.1560204222        0.4068691904       -0.4482858839
 N          1.4440817521       -0.7429361991        0.4533785494
 H         -1.8846773124       -0.7796037649       -1.1550958200
 H         -1.0560875015       -0.0714552891        1.4341337573
 H         -2.1981864455        0.7949404170        0.4187251971
 H          0.1694121320        1.9023239673        0.7767778887
 H         -0.4108205577        1.8320006671       -0.8693368285
 H          2.0380153548        1.0590860355       -0.5132537523
 H          1.0054557062        0.0057745299       -1.4601612575
 H          1.5998977406       -0.4310777837        1.4260245870
 H          2.2821686062       -1.2624662150        0.1541402917
 H          0.6475908138       -1.4027993839        0.4452453991
  15
  -18.066951540000002        7.0931371749650461E-005 !mtd3
 O         -1.3017015450       -0.8498803342        0.4173189699
 C         -1.2113388972        0.2560238939       -0.4563934702
 C         -0.0804359500        1.2039436455       -0.0579474718
 C          1.1456878646        0.4395182401        0.4441341782
 N          1.4534457294       -0.7728545849       -0.3642155231
 H         -1.9147844494       -0.6964780644        1.1623814256
 H         -2.1873374280        0.7608018687       -0.5268579774
 H         -1.0223796780       -0.1765223942       -1.4489818652
 H         -0.4294345386        1.8896354426        0.7238965596
 H          0.1889104029        1.8413167408       -0.9091606416
 H          0.9713976817        0.1131578775        1.4789300077
 H          2.0264648801        1.0953919495        0.4816562378
 H          1.6321171425       -0.5324459922       -1.3530996763
 H          0.6566163737       -1.4310721633       -0.3267685315
 H          2.2841208023       -1.2683948142       -0.0083990696
  15
  -18.066944880000001        7.0433234791049092E-005 !mtd2
 O         -1.2927493052       -0.8791853497       -0.3842778311
 C         -1.2214462128        0.2874892026        0.4082743775
 C         -0.0808509472        1.2048819744       -0.0317859997
 C          1.1561211027        0.4070749233       -0.4480021173
 N          1.4438312688       -0.7429883944        0.4534091173
 H         -1.8812596767       -0.7777745022       -1.1574795037
 H         -1.0558565210       -0.0716817604        1.4341654222
 H         -2.1981365016        0.7947578097        0.4189659804
 H          0.1690237902        1.9025927582        0.7766161420
 H         -0.4109587452        1.8318199850       -0.8695334247
 H          2.0381824682        1.0592739029       -0.5123894777
 H          1.0060370712        0.0063046782       -1.4600742054
 H          2.2853532519       -1.2640799582        0.1534725977
 H          0.6475995376       -1.4029112802        0.4446917537
 H          1.5982715267       -0.4322985400        1.4228205678
  15
  -18.066934820000000        6.9687418821507273E-005 !mtd3
 O         -1.3022539722       -0.8497264429        0.4173027232
 C         -1.2111159808        0.2557344072       -0.4567411342
 C         -0.0806022810        1.2038697787       -0.0578499469
 C          1.1457628797        0.4396386578        0.4439677946
 N          1.4534936843       -0.7727686202       -0.3643208935
 H         -1.9107820104       -0.6935124327        1.1654830634
 H         -2.1872107533        0.7602131973       -0.5279249364
 H         -1.0214373130       -0.1771616493       -1.4490184259
 H         -0.4298641119        1.8891765874        0.7242105846
 H          0.1884712296        1.8417534712       -0.9087668725
 H          0.9718790869        0.1132918883        1.4788207651
 H          2.0264788470        1.0955897706        0.4812728455
 H          2.2875086206       -1.2699233900       -0.0080328168
 H          1.6304527085       -0.5335160417       -1.3498589180
 H          0.6567294219       -1.4312634322       -0.3259029556
  15
  -18.065776480000000        2.0455880252710928E-005 !mtd3
 O         -1.2714919102       -0.8671865500       -0.3879677864
 C         -1.2419605879        0.3108095287        0.3892658239
 C         -0.0701711518        1.2071328829       -0.0245066235
 C          1.1360943115        0.3879843368       -0.4787598624
 N          1.4663265030       -0.7287947090        0.4471914085
 H         -2.1207214863       -1.3455185745       -0.3205517276
 H         -1.1503655813        0.0002567658        1.4399260110
 H         -2.2029240858        0.8374622317        0.2877713892
 H          0.2066964010        1.8740856043        0.8007387463
 H         -0.3849863206        1.8656250054       -0.8447001180
 H          2.0165041162        1.0309529267       -0.6162348883
 H          0.9199515742       -0.0486571536       -1.4643747498
 H          0.6658362498       -1.3871989416        0.4964043529
 H          1.6652620858       -0.3849719698        1.3971819249
 H          2.2888027956       -1.2609790800        0.1263867850
  15
  -18.065768490000000        2.0283655364777521E-005 !mtd2
 O         -1.2780643751       -0.8362995988        0.4296141155
 C         -1.2350640911        0.2799262852       -0.4334003952
 C         -0.0695395542        1.2055261421       -0.0690635969
 C          1.1268895558        0.4235049661        0.4686629008
 N          1.4734904096       -0.7596869479       -0.3641746561
 H         -2.1266290864       -1.3184862750        0.3848217085
 H         -2.1975986055        0.8123433664       -0.3875942815
 H         -1.1263490924       -0.1088278959       -1.4555970024
 H         -0.3978547345        1.9253466946        0.6917791228
 H          0.2233819097        1.8067170405       -0.9384780810
 H          0.8914028576        0.0623135670        1.4801489293
 H          2.0052356760        1.0751397727        0.5739763854
 H          1.6916787805       -0.4872154012       -1.3368940753
 H          0.6763699380       -1.4174520092       -0.3794460796
 H          2.2891737181       -1.2659303318        0.0112976454
  15
  -18.065762070000002        2.0146323122096377E-005 !mtd1
 O         -1.2712188547       -0.8671926401       -0.3879367381
 C         -1.2421358551        0.3109158149        0.3890931704
 C         -0.0700783002        1.2071065324       -0.0242853180
 C          1.1355834224        0.3875347387       -0.4791829171
 N          1.4663470560       -0.7286918954        0.4472570310
 H         -2.1203491910       -1.3457418148       -0.3204839321
 H         -1.1510763693        0.0005091234        1.4398437732
 H         -2.2030262717        0.8375533520        0.2868400825
 H          0.2072543917        1.8734504711        0.8012902035
 H         -0.3847053051        1.8661839043       -0.8440850803
 H          2.0160193045        1.0302175374       -0.6178190394
 H          0.9183666327       -0.0496876572       -1.4643153641
 H          1.6674473734       -0.3829389193        1.4001785713
 H          2.2881282133       -1.2614312637        0.1260750401
 H          0.6684471909       -1.3839848225        0.4980803617
  15
  -18.065759900000000        2.0100114540955544E-005 !mtd4
 O         -1.2711577596       -0.8672125738       -0.3878926146
 C         -1.2419576680        0.3108751664        0.3892595087
 C         -0.0701509854        1.2072260024       -0.0243330854
 C          1.1355853757        0.3876297395       -0.4789885990
 N          1.4660983753       -0.7287139048        0.4473397965
 H         -2.1215905249       -1.3438432068       -0.3234515012
 H         -1.1502377619       -0.0000471420        1.4397854286
 H         -2.2029270112        0.8375434815        0.2880406797
 H          0.2070860264        1.8737569420        0.8011295206
 H         -0.3848476104        1.8661068903       -0.8442736816
 H          2.0161225803        1.0302103141       -0.6173176645
 H          0.9186869799       -0.0495099203       -1.4641998267
 H          2.2912565473       -1.2632276896        0.1255312361
 H          0.6684508513       -1.3841543003        0.4976644630
 H          1.6657114380       -0.3841545836        1.3971167079
  15
  -18.065750909999998        1.9909805358827382E-005 !mtd2
 O         -1.2783772139       -0.8361710129        0.4296750733
 C         -1.2348208233        0.2797909689       -0.4337139155
 C         -0.0696486252        1.2055422032       -0.0689504870
 C          1.1269010672        0.4235407978        0.4685572974
 N          1.4735660781       -0.7595692299       -0.3642624278
 H         -2.1270877482       -1.3180886410        0.3851440031
 H         -2.1974186449        0.8121894128       -0.3889872592
 H         -1.1254124659       -0.1093618141       -1.4557023473
 H         -0.3981561394        1.9250024266        0.6921492946
 H          0.2230895443        1.8071949205       -0.9381105722
 H          0.8914881843        0.0621131168        1.4799779977
 H          2.0051375340        1.0752993126        0.5740014643
 H          2.2919846760       -1.2679236905        0.0124207134
 H          1.6911643977       -0.4878459732       -1.3333396487
 H          0.6762000829       -1.4173134849       -0.3796405412
