12
 energy: -15.465593805574 gnorm: 0.000256204935 xtb: 6.5.1 (fef0646)
N            1.01511596120267       -0.00021785825594        0.05788229408537
C            2.49386279731332       -0.09241814499011        0.00800568106279
C            2.98201504516026       -0.36470316050198       -1.41719834921896
C            2.59591198832388       -1.67240258205571       -1.88279039992711
N            2.26411786397901       -2.71041221994295       -2.23353348731348
H            0.70007344470486        0.18281932280058        1.01872289281244
H            0.58605603734773       -0.87834957117674       -0.26029269531358
H            0.67603835795815        0.76034833499228       -0.54521194799831
H            2.82639422695691       -0.89227797602864        0.67076069707465
H            2.92204505429753        0.84957183015320        0.35075471301813
H            4.07259482361108       -0.31460401501523       -1.44524645562579
H            2.59669439914463        0.37785604002126       -2.12012294265616
