  17
        -24.41573862
 N         -1.9846366541       -1.0914196184       -0.1319335870
 C         -1.9240815081        0.3648825100       -0.4739832070
 C         -0.9991497961        1.1533560489        0.4700169188
 C          0.4764928237        1.2102559542        0.0321330659
 C          1.2196033431       -0.1010580943        0.0678378057
 O          2.4673622335       -0.0679734745       -0.4253267449
 O          0.7216057109       -1.1039048696        0.5133201745
 H         -2.3577742334       -1.6603175496       -0.8979716591
 H         -2.5471505532       -1.2528957991        0.7086189398
 H         -1.0160465061       -1.3775921507        0.0752916894
 H         -2.9465719093        0.7667363631       -0.4531103233
 H         -1.5798481889        0.4863328735       -1.5089766833
 H         -1.0549588086        0.7147139445        1.4733257341
 H         -1.3773826664        2.1795257559        0.5761945429
 H          1.0279568655        1.9142831185        0.6670396722
 H          0.5491666477        1.6157695963       -0.9828727472
 H          2.8848661524       -0.9275833156       -0.3649495793
