17
 energy: -24.405091129549 gnorm: 0.000684653079 xtb: 6.5.1 (fef0646)
N            1.02723004037292        0.01653540036138        0.06002955365798
C            2.50849006570175        0.03527050974948        0.06147905701228
C            3.01678263025100        1.47253095827631        0.01228441109207
C            4.54431584931682        1.51681585913321        0.01041300455090
C            5.04587345914913        2.94122649958498       -0.03976214423606
O            6.36849523007410        3.10006436546667       -0.04601014752993
O            4.31666909269680        3.90605316536154       -0.07440573703769
H            0.67293880639341       -0.94639619474862        0.08936106621537
H            0.66861559475539        0.47471441840280       -0.78632529100029
H            0.66633923862393        0.52648672199923        0.87513740257250
H            2.87296799447184       -0.51633077696199       -0.80514119929631
H            2.87052801649777       -0.45537997279248        0.96497993129597
H            2.66052885808192        2.04095428214609        0.87230311975223
H            2.66064301218047        1.98033654581151       -0.88490536408173
H            4.94231718573988        0.98535202150800       -0.85685763882678
H            4.94311832426841        1.04685387304884        0.91211550459406
H            6.87145660142444        2.26629232365304       -0.01499552873456
