  15
        -17.23727125
 N         -2.2086380481        0.4525758618        0.4293252848
 C         -1.4220571644       -0.7664760546        0.0792314379
 C         -0.2760437092       -0.4722946681       -0.8753038326
 S          0.9637179597        0.6122459724       -0.1658952736
 C          2.0354370781       -0.5669772269        0.6097527839
 H         -2.9749390595        0.2380902982        1.0840203629
 H         -2.6292712965        0.8761253310       -0.4096680045
 H         -1.6105060669        1.1707315993        0.8726872954
 H         -2.1005224210       -1.5117104363       -0.3584083635
 H         -1.0342466021       -1.2203700757        0.9993839911
 H         -0.6587320072        0.0220665016       -1.7712527664
 H          0.2116509285       -1.3890103224       -1.2149444849
 H          1.4979624190       -1.1586272439        1.3463378985
 H          2.8436556808       -0.0416093523        1.1147502235
 H          2.4735887728       -1.2310098185       -0.1319439011
  15
        -17.23718597
 N         -2.1745093847        0.7040580116       -0.1208832947
 C         -1.3806034174       -0.4003121487       -0.7351302461
 C         -0.3277099704       -0.9616188869        0.2068164019
 S          0.9282582631        0.2394966333        0.6489165127
 C          2.0798635807        0.0242417561       -0.6806774397
 H         -1.5680336407        1.4843200225        0.1670872908
 H         -2.6770710115        0.3781583916        0.7166415362
 H         -2.8798431470        1.0820226440       -0.7782181925
 H         -0.9038203687       -0.0330714845       -1.6520197227
 H         -2.0686043638       -1.1953123928       -1.0544544031
 H          0.1619925290       -1.8430121822       -0.2141925151
 H         -0.7995441155       -1.2873343851        1.1366196652
 H          2.9116328246        0.7140176215       -0.5517125440
 H          1.6116946210        0.2275913887       -1.6403130427
 H          2.4761579554       -0.9886411365       -0.6833551673
  15
        -17.23666855
 N         -2.2763308066        0.4438534789        0.4705921164
 C         -1.6359251825       -0.3707511626       -0.6030006675
 C         -0.2401407079       -0.8475417631       -0.2339211864
 S          0.8973788360        0.5181942957       -0.0183883901
 C          2.3970536763       -0.3759438631        0.2860283357
 H         -2.3754941684       -0.0985427737        1.3400482233
 H         -3.2167330403        0.7640672725        0.1962440441
 H         -1.7126718123        1.2836162992        0.6879443112
 H         -1.5873997101        0.2260780463       -1.5233011350
 H         -2.2837817601       -1.2276706941       -0.8341177379
 H          0.1629439244       -1.5079324917       -1.0055745033
 H         -0.2688626836       -1.4190355188        0.6954221401
 H          3.2088965372        0.3279112171        0.4582402264
 H          2.6562132598       -0.9939342892       -0.5705555578
 H          2.2978626950       -1.0075519802        1.1657018174
  15
        -17.22915283
 N         -2.7090532530        0.1761330342        0.4644819661
 C         -1.3661420748       -0.4116496212        0.1749839626
 C         -0.3333875388        0.6306333584       -0.2186570362
 S          1.2485281379       -0.0771205394       -0.6866536666
 C          2.0218001275       -0.2606065010        0.8967634202
 H         -2.6608797004        0.8551064923        1.2367358637
 H         -3.3926176014       -0.5477469355        0.7298061726
 H         -3.0868602568        0.6705226602       -0.3620869503
 H         -1.4641077505       -1.1518241469       -0.6298427965
 H         -1.0192389200       -0.9731637632        1.0508800293
 H         -0.1802240818        1.3532781823        0.5848244512
 H         -0.6940478333        1.2022364186       -1.0767622408
 H          1.4431007547       -0.9180097875        1.5403817416
 H          2.1369597427        0.7060689218        1.3815478252
 H          3.0108742284       -0.6950562547        0.7650624294
  15
        -17.22856096
 N         -2.8215656141       -0.2533754107        0.2563252436
 C         -1.5565401255        0.3661088889       -0.2411818738
 C         -0.3067790898       -0.3362450424        0.2616995978
 S          1.1871276556        0.4376775019       -0.3566464309
 C          2.4098399374       -0.6009293491        0.3954355062
 H         -2.8961319504       -1.2364856766       -0.0398085387
 H         -3.6525626663        0.2410147341       -0.0996854391
 H         -2.8671036845       -0.2332291955        1.2896793859
 H         -1.5291250938        1.4229171429        0.0550670615
 H         -1.5607921756        0.3684331463       -1.3391270918
 H         -0.3099840109       -1.3832660263       -0.0466378930
 H         -0.2785516732       -0.3255904347        1.3526195865
 H          2.2969061432       -1.6305106958        0.0640654187
 H          2.3330293135       -0.5630077355        1.4795320338
 H          3.4015616111       -0.2557902857        0.1097737347
