  35
        -50.11872669
 N         -5.7600608826        0.9604953169       -1.4720717827
 C         -5.9650644255       -0.3058775675       -0.7121888251
 C         -5.2876445107       -0.2838086400        0.6566043175
 C         -3.7953257382       -0.1590418022        0.5703805985
 C         -3.0056987269       -1.2726064791        0.3080635267
 C         -1.6393667918       -1.1661339018        0.2069787836
 C         -0.9991420951        0.0737460978        0.3597181281
 C          0.4231022933        0.2355752965        0.2624143213
 C          1.3256811225       -0.7614713296        0.0594515086
 C          2.7459336994       -0.5877074097       -0.0484737394
 C          3.3578085401        0.6718439193        0.0037021385
 C          4.7261265444        0.8082062793       -0.1074786992
 F          5.2844956678        2.0251261584       -0.0588230073
 C          5.5190998400       -0.3199105338       -0.2724707336
 C          4.9401221481       -1.5714948863       -0.3267052139
 C          3.5757465757       -1.7094722768       -0.2180183366
 C         -1.8064409281        1.1928306379        0.6157221796
 C         -3.1715770086        1.0751288565        0.7174031923
 H         -6.2171111794        0.9320877528       -2.3962564665
 H         -4.7573205500        1.1422777067       -1.6257637122
 H         -6.1487359517        1.7692123208       -0.9580554574
 H         -5.5783947387       -1.1454865991       -1.3008339420
 H         -7.0412592052       -0.4885792598       -0.6027383062
 H         -5.5368410265       -1.1886127062        1.2219024433
 H         -5.6846822706        0.5471111034        1.2475313612
 H         -3.4798378449       -2.2318750279        0.1876010553
 H         -1.0570542647       -2.0469027170        0.0049059621
 H          0.7909070777        1.2397220724        0.3690834405
 H          0.9634942300       -1.7700351364       -0.0228081424
 H          2.7771691322        1.5666803920        0.1256911697
 H          6.5852134078       -0.1927071473       -0.3566675839
 H          5.5616878001       -2.4433513180       -0.4547108758
 H          3.1311078352       -2.6892067413       -0.2604351144
 H         -1.3412729718        2.1560675386        0.7389493316
 H         -3.7719322228        1.9461679066        0.9199368777
