  35
        -50.11872669
 N         -5.7600608826        0.9604953169       -1.4720717827
 C         -5.9650644255       -0.3058775675       -0.7121888251
 C         -5.2876445107       -0.2838086400        0.6566043175
 C         -3.7953257382       -0.1590418022        0.5703805985
 C         -3.0056987269       -1.2726064791        0.3080635267
 C         -1.6393667918       -1.1661339018        0.2069787836
 C         -0.9991420951        0.0737460978        0.3597181281
 C          0.4231022933        0.2355752965        0.2624143213
 C          1.3256811225       -0.7614713296        0.0594515086
 C          2.7459336994       -0.5877074097       -0.0484737394
 C          3.3578085401        0.6718439193        0.0037021385
 C          4.7261265444        0.8082062793       -0.1074786992
 F          5.2844956678        2.0251261584       -0.0588230073
 C          5.5190998400       -0.3199105338       -0.2724707336
 C          4.9401221481       -1.5714948863       -0.3267052139
 C          3.5757465757       -1.7094722768       -0.2180183366
 C         -1.8064409281        1.1928306379        0.6157221796
 C         -3.1715770086        1.0751288565        0.7174031923
 H         -6.2171111794        0.9320877528       -2.3962564665
 H         -4.7573205500        1.1422777067       -1.6257637122
 H         -6.1487359517        1.7692123208       -0.9580554574
 H         -5.5783947387       -1.1454865991       -1.3008339420
 H         -7.0412592052       -0.4885792598       -0.6027383062
 H         -5.5368410265       -1.1886127062        1.2219024433
 H         -5.6846822706        0.5471111034        1.2475313612
 H         -3.4798378449       -2.2318750279        0.1876010553
 H         -1.0570542647       -2.0469027170        0.0049059621
 H          0.7909070777        1.2397220724        0.3690834405
 H          0.9634942300       -1.7700351364       -0.0228081424
 H          2.7771691322        1.5666803920        0.1256911697
 H          6.5852134078       -0.1927071473       -0.3566675839
 H          5.5616878001       -2.4433513180       -0.4547108758
 H          3.1311078352       -2.6892067413       -0.2604351144
 H         -1.3412729718        2.1560675386        0.7389493316
 H         -3.7719322228        1.9461679066        0.9199368777
  35
        -50.11864498
 N         -5.7623332067        0.7485238484        1.6620800882
 C         -5.9668356621       -0.4077908088        0.7433948491
 C         -5.2941429019       -0.2039591474       -0.6125925113
 C         -3.8016293464       -0.0878658797       -0.5166510234
 C         -3.0121949206       -1.2219012076       -0.3652307334
 C         -1.6449789255       -1.1270229921       -0.2649212750
 C         -1.0032630314        0.1207320137       -0.3080495859
 C          0.4208506095        0.2700467852       -0.2183381990
 C          1.3218100066       -0.7426623356       -0.1058819939
 C          2.7454321539       -0.5838992381       -0.0223948157
 C          3.3666610490        0.6721019033       -0.0351342330
 C          4.7385673147        0.7930527214        0.0454999530
 F          5.3061640538        2.0066255764        0.0340576455
 C          5.5257021233       -0.3471801717        0.1402605247
 C          4.9374830527       -1.5955369496        0.1548985664
 C          3.5696437121       -1.7182885228        0.0755799914
 C         -1.8104803565        1.2599458197       -0.4505293349
 C         -3.1767202462        1.1540731768       -0.5508688888
 H         -6.1539577504        1.6134064143        1.2610133120
 H         -4.7594615041        0.9120394374        1.8343496439
 H         -6.2171001158        0.5971719487        2.5792671717
 H         -7.0428040116       -0.5777372935        0.6141151308
 H         -5.5761775913       -1.3163705344        1.2156855818
 H         -5.6956768046        0.6966285510       -1.0875527459
 H         -5.5432156812       -1.0268246533       -1.2912750883
 H         -3.4871230260       -2.1877928881       -0.3332821334
 H         -1.0628381162       -2.0238170829       -0.1530831129
 H          0.7913897655        1.2782586127       -0.2522686922
 H          0.9552174828       -1.7526891954       -0.0819010090
 H          2.7912499589        1.5757183264       -0.1068319938
 H          6.5947446858       -0.2318645763        0.2012003288
 H          5.5545521299       -2.4768456028        0.2283493096
 H          3.1178193564       -2.6955927411        0.0867963816
 H         -1.3443412551        2.2298774437       -0.4875440048
 H         -3.7768118629        2.0411231523       -0.6657650206
  35
        -50.11848275
 N         -5.6976233501       -0.2578022157       -1.7715616999
 C         -6.0162046834        0.4513322788       -0.4994100933
 C         -5.2901338069       -0.1497332302        0.7024179047
 C         -3.7969231951       -0.0532524428        0.5952555511
 C         -3.0312343866       -1.1563517784        0.2345677080
 C         -1.6643009894       -1.0661032867        0.1253611122
 C         -0.9989867094        0.1453994711        0.3707597899
 C          0.4257441591        0.2870422391        0.2781200655
 C          1.3058663635       -0.7032214783       -0.0295568603
 C          2.7300914015       -0.5523850551       -0.1177747498
 C          3.3740037261        0.6732610191        0.0985215232
 C          4.7457850518        0.7873385643        0.0062289454
 F          5.3351776044        1.9725582914        0.2134237583
 C          5.5100173556       -0.3296781139       -0.3050587801
 C          4.8992182665       -1.5479689052       -0.5224508328
 C          3.5314380149       -1.6635922561       -0.4320593059
 C         -1.7823979404        1.2546535874        0.7248475868
 C         -3.1483900087        1.1534830963        0.8325164336
 H         -6.1865394148        0.1610650484       -2.5774086408
 H         -5.9748229595       -1.2494334353       -1.7218938282
 H         -4.6834506069       -0.2269126391       -1.9700522792
 H         -7.1011902098        0.4322395265       -0.3389923659
 H         -5.7486690264        1.5093598299       -0.6006287384
 H         -5.5764734498       -1.2001888652        0.8136219607
 H         -5.6116124441        0.3396106798        1.6281544322
 H         -3.5228360458       -2.0955720859        0.0462175663
 H         -1.1003231177       -1.9388433553       -0.1501057933
 H          0.8150888265        1.2683673696        0.4789939507
 H          0.9206547616       -1.6881581842       -0.2208678520
 H          2.8166794378        1.5584237293        0.3406666006
 H          6.5793688209       -0.2203712523       -0.3715392368
 H          5.4985354300       -2.4113887739       -0.7636633911
 H          3.0619087706       -2.6174793757       -0.6023578769
 H         -1.2982912555        2.1966379407        0.9191225230
 H         -3.7311450541        2.0155537303        1.1110784477
  35
        -50.11842190
 N         -5.6180429329        1.2883073874        1.4602207176
 C         -6.0517930740        0.0751661942        0.7098275916
 C         -5.3347030777       -0.0710731866       -0.6307781738
 C         -3.8520810649       -0.2482087246       -0.4871183752
 C         -3.3173573668       -1.4840354356       -0.1429961509
 C         -1.9620150308       -1.6510945286        0.0059719883
 C         -1.0743506800       -0.5797648001       -0.1801869951
 C          0.3362445734       -0.7929644014       -0.0260412098
 C          1.3013080535        0.1521500286       -0.1836025621
 C          2.7133277214       -0.0572178057       -0.0378385461
 C          3.5890889745        1.0197000966       -0.2295862007
 C          4.9541244581        0.8674833705       -0.1020949843
 F          5.7689503695        1.9142619499       -0.2904685438
 C          5.4775836292       -0.3770831327        0.2225179058
 C          4.6359436367       -1.4536597844        0.4161386670
 C          3.2739006990       -1.3039601873        0.2899420048
 C         -1.6251123083        0.6661131953       -0.5189735698
 C         -2.9827145071        0.8225907585       -0.6660386733
 H         -6.1036553019        1.3734945834        2.3661917526
 H         -5.8131460152        2.1457221032        0.9222602904
 H         -4.6022005373        1.2638508850        1.6507745200
 H         -7.1376969004        0.1147228166        0.5597685867
 H         -5.8679740020       -0.8132457975        1.3247918188
 H         -5.5338938366        0.8095117184       -1.2494548337
 H         -5.7411090101       -0.9193811684       -1.1919946163
 H         -3.9809837097       -2.3196829407        0.0010716493
 H         -1.5672017838       -2.6182490810        0.2659270098
 H          0.6387129712       -1.7912428731        0.2324364610
 H          0.9985125638        1.1503623333       -0.4426912771
 H          3.2065893070        1.9921884319       -0.4826074447
 H          6.5456337917       -0.4780323258        0.3172348926
 H          5.0510009201       -2.4167410859        0.6672698988
 H          2.6349374855       -2.1549440385        0.4440200824
 H         -0.9800151827        1.5127590815       -0.6708845076
 H         -3.3857841281        1.7857019296       -0.9309801497
  35
        -50.11835205
 N         -5.8534391141        1.6789884629       -0.3972961250
 C         -5.9601090105        0.2693082621       -0.8708474119
 C         -5.3127505269       -0.7221642944        0.0938993423
 C         -3.8366654600       -0.5077227550        0.2539506927
 C         -2.9495993311       -0.9386904540       -0.7254514411
 C         -1.5965135491       -0.7369748235       -0.5962675186
 C         -1.0679305512       -0.0853855159        0.5293301382
 C          0.3374252185        0.1391892565        0.7124021220
 C          1.3185739653       -0.2330427082       -0.1526284563
 C          2.7250567309       -0.0149893348        0.0298359398
 C          3.6199528124       -0.4489899485       -0.9572613854
 C          4.9803444230       -0.2615597103       -0.8265484719
 F          5.8137427901       -0.6839375985       -1.7868795446
 C          5.4797124109        0.3687043643        0.3055671729
 C          4.6189992627        0.8045167836        1.2925089472
 C          3.2615697364        0.6193876966        1.1637856516
 C         -1.9731169916        0.3529038670        1.5081852468
 C         -3.3245196570        0.1465501838        1.3692451471
 H         -6.2862964238        2.3404046630       -1.0598899731
 H         -4.8678724298        1.9560839504       -0.2786638948
 H         -6.3238843784        1.8008154339        0.5154699815
 H         -5.4901194281        0.1843242276       -1.8571662351
 H         -7.0177553177        0.0201007668       -1.0220357253
 H         -5.4877872769       -1.7510639579       -0.2394463467
 H         -5.7959696582       -0.6471134822        1.0727208633
 H         -3.3363698110       -1.4442045921       -1.5940066425
 H         -0.9375551626       -1.0887095924       -1.3693710022
 H          0.6218252384        0.6443214892        1.6172573152
 H          1.0342753218       -0.7369966057       -1.0584259944
 H          3.2563050686       -0.9400909509       -1.8419191826
 H          6.5444554328        0.5061040787        0.3913131164
 H          5.0154168733        1.2922851335        2.1687426228
 H          2.6077270907        0.9648772778        1.9443601821
 H         -1.5951929407        0.8545553772        2.3827027933
 H         -4.0010532730        0.4870892890        2.1350598047
  35
        -50.11827850
 N         -5.7160925751        0.8852805338       -1.5884149361
 C         -6.0982078025       -0.1017131535       -0.5384716990
 C         -5.3128349494        0.0901986786        0.7573819868
 C         -3.8360011276       -0.1122807530        0.5872065764
 C         -3.3122358753       -1.3895772212        0.4278474810
 C         -1.9620810502       -1.5852541901        0.2676680362
 C         -1.0680334996       -0.5032062535        0.2606389974
 C          0.3377923552       -0.7477627385        0.1091997366
 C          1.3141559600        0.1986998975        0.1291102323
 C          2.7210409374       -0.0455500072       -0.0131742128
 C          3.6149288765        1.0313201696        0.0566978320
 C          4.9758386624        0.8451662836       -0.0706557836
 F          5.8085389362        1.8923639667        0.0012687132
 C          5.4766603246       -0.4340143872       -0.2735972876
 C          4.6168274306       -1.5110451298       -0.3474950020
 C          3.2590394181       -1.3277141754       -0.2201284891
 C         -1.6077315422        0.7836349467        0.4123573214
 C         -2.9607872567        0.9688387551        0.5691633728
 H         -5.8967452791        1.8496554494       -1.2728984219
 H         -6.2449753328        0.7404572129       -2.4622450137
 H         -4.7099739238        0.8150070907       -1.8157152627
 H         -5.9362926352       -1.1155236778       -0.9216423030
 H         -7.1756962834       -0.0242726908       -0.3470818985
 H         -5.6771402495       -0.5946217842        1.5311496045
 H         -5.4962398561        1.0954902288        1.1484781255
 H         -3.9798682095       -2.2342751063        0.4396837481
 H         -1.5757454121       -2.5834598641        0.1529474922
 H          0.6276749948       -1.7746622479       -0.0183456170
 H          1.0263690439        1.2242602531        0.2730011837
 H          3.2503454364        2.0303005383        0.2152448312
 H          6.5417542637       -0.5609966650       -0.3703515751
 H          5.0141599636       -2.5009272162       -0.5059844773
 H          2.6057305992       -2.1794623924       -0.2823482866
 H         -0.9575776595        1.6400244065        0.4080573007
 H         -3.3550042516        1.9640648569        0.6889569480
  35
        -50.11483114
 N         -7.3345871041       -0.2119678374        0.7806146799
 C         -5.8464792090       -0.1423230439        0.8721459682
 C         -5.1825227144        0.0463174420       -0.4877895963
 C         -3.6854648256        0.1152206436       -0.4075216397
 C         -2.9156874540       -1.0402551807       -0.4774920891
 C         -1.5459774615       -0.9870547666       -0.3810575201
 C         -0.8819501700        0.2369278172       -0.2030727661
 C          0.5452320967        0.3429594479       -0.1018461765
 C          1.4258498364       -0.6912580475       -0.1707668419
 C          2.8528281758       -0.5775860375       -0.0743539727
 C          3.5017635343        0.6506312090        0.1097987725
 C          4.8764552889        0.7278865458        0.1961463640
 F          5.4712995556        1.9153262575        0.3728041940
 C          5.6383241498       -0.4292166106        0.0995358154
 C          5.0224189639       -1.6509201289       -0.0814968376
 C          3.6518842793       -1.7301432375       -0.1675977048
 C         -1.6694328719        1.3960053488       -0.1240588329
 C         -3.0384621018        1.3320663215       -0.2217813042
 H         -7.7220006132        0.6503862864        0.3706737588
 H         -7.7711906786       -0.3397824290        1.7062690244
 H         -7.6345373274       -1.0002604076        0.1826973474
 H         -5.4656598264       -1.0545784449        1.3450857182
 H         -5.5585529255        0.6773750542        1.5403152615
 H         -5.5638387543        0.9562943092       -0.9615109150
 H         -5.4736392493       -0.7691526867       -1.1567479827
 H         -3.4078791673       -1.9885086245       -0.6118054083
 H         -0.9792530895       -1.8983971144       -0.4433053551
 H          0.9354229217        1.3346702874        0.0369349558
 H          1.0384771551       -1.6837621021       -0.3121422756
 H          2.9460936057        1.5659172480        0.1886286749
 H          6.7099272893       -0.3478218474        0.1684995976
 H          5.6198832880       -2.5454776279       -0.1561517705
 H          3.1782470762       -2.6866334911       -0.3097447827
 H         -1.1864947903        2.3484575035        0.0138649820
 H         -3.6248888945        2.2333536894       -0.1571568241
  35
        -50.11466888
 N         -7.3303407590        1.0120001040       -0.1315357047
 C         -5.8578247658        0.9817121875        0.1107428523
 C         -5.2156027257       -0.3261174525       -0.3397349523
 C         -3.7339745343       -0.3677914854       -0.1037329956
 C         -2.8481410508        0.1140943863       -1.0605100415
 C         -1.4913807436        0.0977000525       -0.8432710586
 C         -0.9578667828       -0.4021901110        0.3553095601
 C          0.4509619316       -0.4449787342        0.6240956248
 C          1.4311280603       -0.0206518061       -0.2177073013
 C          2.8408611003       -0.0652799809        0.0460496857
 C          3.7346169876        0.4168697982       -0.9194688016
 C          5.0980942650        0.3947180312       -0.7114235836
 F          5.9304039371        0.8650661684       -1.6501435954
 C          5.6017048889       -0.1160714056        0.4775883519
 C          4.7421258245       -0.5973766437        1.4441625437
 C          3.3816685904       -0.5755530326        1.2390330528
 C         -1.8618370310       -0.8765244438        1.3183990430
 C         -3.2169193225       -0.8553791240        1.0915847433
 H         -7.7525623192        1.9009554873        0.1764750935
 H         -7.8056658785        0.2503246675        0.3745264708
 H         -7.5450764550        0.8965067985       -1.1362312258
 H         -5.6584324281        1.1430172545        1.1761821552
 H         -5.3841533191        1.8231801847       -0.4076693935
 H         -5.4189469067       -0.4899032183       -1.4026119535
 H         -5.6899787119       -1.1665495599        0.1758941265
 H         -3.2390018655        0.5023887950       -1.9856776077
 H         -0.8334907120        0.4732408819       -1.6060077313
 H          0.7387365323       -0.8513161028        1.5763981636
 H          1.1433864781        0.3869719755       -1.1697028855
 H          3.3675553594        0.8164470845       -1.8476949316
 H          6.6687608021       -0.1262301938        0.6229443571
 H          5.1418077861       -0.9925753280        2.3644208726
 H          2.7286155698       -0.9560773258        2.0038036145
 H         -1.4805344950       -1.2632598163        2.2480900368
 H         -3.8939595253       -1.2227508771        1.8445463982
  35
        -50.11243561
 N         -6.3163252038       -1.3243326628       -1.0881042495
 C         -5.9761032353        0.1096035207       -0.8449978459
 C         -5.2625088853        0.3375914850        0.4962351185
 C         -3.7589893675        0.3182721613        0.4357622679
 C         -3.0231277685        1.0954719661        1.3246338435
 C         -1.6496424933        1.0873072906        1.3087843609
 C         -0.9395004389        0.2885123639        0.3996099407
 C          0.4950523767        0.3114845677        0.4079718548
 C          1.3073982262       -0.4187749504       -0.4023603546
 C          2.7418137434       -0.3820217980       -0.3940010902
 C          3.4705669929        0.4512149553        0.4651902955
 C          4.8499922982        0.4669692922        0.4473345081
 F          5.5219201457        1.2749153532        1.2784321415
 C          5.5364629185       -0.3564559529       -0.4355601714
 C          4.8412655809       -1.1862675109       -1.2914940707
 C          3.4658549197       -1.2028887915       -1.2758417471
 C         -1.6872480608       -0.5022918835       -0.4859736252
 C         -3.0613433957       -0.4847154633       -0.4602744835
 H         -6.7497223839       -1.4630111354       -2.0136285383
 H         -6.9865762339       -1.6657894656       -0.3833531100
 H         -5.4870149669       -1.9380467341       -1.0368967079
 H         -6.9062147105        0.6911091370       -0.8853577775
 H         -5.3598787318        0.4963442952       -1.6647903084
 H         -5.5975306727       -0.4152376912        1.2164865592
 H         -5.5732697864        1.2994879079        0.9189678941
 H         -3.5449518691        1.7125532059        2.0364411487
 H         -1.1026463350        1.7010403126        2.0039314809
 H          0.9510763959        0.9693529059        1.1250756487
 H          0.8543484226       -1.0850871068       -1.1135708379
 H          2.9747489691        1.1031647964        1.1594111326
 H          6.6130946191       -0.3296920263       -0.4342958884
 H          5.3803556840       -1.8232307271       -1.9745134334
 H          2.9301198822       -1.8529686291       -1.9464597169
 H         -1.1820964726       -1.1308764602       -1.1971409785
 H         -3.6088668876       -1.0981826219       -1.1523903323
  35
        -50.11229848
 N         -6.3615571323       -1.6284810324       -0.5619245088
 C         -5.9723499950       -0.2078465773       -0.8093096020
 C         -5.2584667475        0.4364690979        0.3902004035
 C         -3.7559668242        0.4233303751        0.3154606409
 C         -3.0530955850       -0.6841830909       -0.1440938843
 C         -1.6796166314       -0.6948603769       -0.1821928343
 C         -0.9376916659        0.4153695850        0.2497125856
 C          0.4964035630        0.4536709594        0.2311755629
 C          1.3141734515       -0.5467800896       -0.1932782760
 C          2.7482253119       -0.4990995463       -0.2075133595
 C          3.4705718798        0.6204664890        0.2265831148
 C          4.8498541436        0.6366423810        0.2007385136
 F          5.5154543389        1.7205250966        0.6216683364
 C          5.5427648151       -0.4740903470       -0.2627346399
 C          4.8540026115       -1.5889327489       -0.6954823492
 C          3.4787191237       -1.6070221375       -0.6706969135
 C         -1.6530847663        1.5267776230        0.7202960191
 C         -3.0266641689        1.5251108656        0.7532173177
 H         -6.8069974911       -2.0524251845       -1.3898894178
 H         -7.0364252882       -1.6934733138        0.2145098144
 H         -5.5515445409       -2.2174997987       -0.3090672024
 H         -6.8802353858        0.3552809236       -1.0613895180
 H         -5.3361802527       -0.1417056884       -1.6995243227
 H         -5.5721158669       -0.0644401632        1.3113428307
 H         -5.5878374034        1.4753773984        0.5021344307
 H         -3.5974481147       -1.5471718180       -0.4808078556
 H         -1.1699635339       -1.5681161701       -0.5473397282
 H          0.9474704511        1.3612138636        0.5887466065
 H          0.8662444278       -1.4560616258       -0.5505441895
 H          2.9698413560        1.4973613676        0.5913958338
 H          6.6191895748       -0.4419816471       -0.2749809998
 H          5.3981411113       -2.4481281090       -1.0539919261
 H          2.9481045861       -2.4804253593       -1.0097363761
 H         -1.1104127992        2.3916378052        1.0624423437
 H         -3.5527757488        2.3880994346        1.1261200507
  35
        -50.11202873
 N         -7.4785084541        0.5311273176       -0.0186256236
 C         -6.0139864532        0.8217704621       -0.0201736678
 C         -5.1678538393       -0.4486771586        0.0049437864
 C         -3.6754815205       -0.2493686279        0.0035254925
 C         -2.8467684514       -1.3664988623        0.0201559542
 C         -1.4782239997       -1.2437540107        0.0194824548
 C         -0.8681095298        0.0195953305        0.0020114263
 C          0.5551323474        0.2006088678        0.0001773060
 C          1.4834749955       -0.7933385405        0.0109284555
 C          2.9057260026       -0.6035152508        0.0086487770
 C          3.4976273999        0.6665140241       -0.0046648751
 C          4.8689848084        0.8171329458       -0.0066000995
 F          5.4085802315        2.0433479085       -0.0191783274
 C          5.6849095991       -0.3066292607        0.0048115935
 C          5.1258344086       -1.5682885750        0.0180533018
 C          3.7586927307       -1.7206470539        0.0200041435
 C         -1.7093440024        1.1422236005       -0.0142766276
 C         -3.0770641109        1.0074427567       -0.0134972022
 H         -8.0420164353        1.3946119095       -0.0353675712
 H         -7.7507719936       -0.0010144332        0.8209779209
 H         -7.7474886078       -0.0321486971       -0.8428038220
 H         -5.7700763863        1.4485288497        0.8448262075
 H         -5.7655435578        1.4170358788       -0.9060465546
 H         -5.4369202563       -1.0715224494       -0.8539968429
 H         -5.4395479262       -1.0390933283        0.8853416814
 H         -3.2954054650       -2.3454903433        0.0335167197
 H         -0.8708182651       -2.1306428627        0.0326751865
 H          0.9002447187        1.2182967103       -0.0112068593
 H          1.1413028876       -1.8121125522        0.0216675346
 H          2.8992973379        1.5579411815       -0.0137026518
 H          6.7529201886       -0.1681789184        0.0031467555
 H          5.7651989307       -2.4365960254        0.0269067935
 H          3.3295850787       -2.7081252547        0.0303525825
 H         -1.2684026064        2.1245106224       -0.0276579686
 H         -3.6918939661        1.8906274048       -0.0262007013
  35
        -50.11175120
 N         -7.5676057076       -0.0508479506       -0.0194639884
 C         -6.1451573608       -0.4980869551       -0.0963856627
 C         -5.1613630026        0.6537345466        0.0930652877
 C         -3.7008690767        0.2923052152        0.0363776531
 C         -2.7523497791        1.2934158388        0.2177387277
 C         -1.4062710911        1.0214088520        0.1745020602
 C         -0.9411119439       -0.2823214605       -0.0556430741
 C          0.4534306796       -0.6156835587       -0.1104788913
 C          1.4833646764        0.2575716872        0.0511360933
 C          2.8788746892       -0.0715956557       -0.0047979855
 C          3.8300987601        0.9395421831        0.1857783239
 C          5.1825485035        0.6717404514        0.1407733212
 F          6.0709747092        1.6574117767        0.3261576180
 C          5.6166634570       -0.6254243655       -0.0983306103
 C          4.6995673064       -1.6389066101       -0.2895969238
 C          3.3500299662       -1.3740542189       -0.2449493960
 C         -1.9028244618       -1.2873485974       -0.2379571870
 C         -3.2468920922       -1.0036463597       -0.1926454589
 H         -7.7756549981        0.6515535317       -0.7441760029
 H         -7.7729625491        0.3788541494        0.8945475726
 H         -8.2273720928       -0.8372019759       -0.1492898992
 H         -5.9711166718       -0.9809742532       -1.0643909076
 H         -5.9676812253       -1.2678242388        0.6631132934
 H         -5.3630700311        1.1384065843        1.0535466324
 H         -5.3603959622        1.4192114348       -0.6632054047
 H         -3.0883733388        2.3011739817        0.3950908616
 H         -0.7039891162        1.8223993302        0.3190934251
 H          0.6860841542       -1.6483581470       -0.2955392527
 H          1.2506554898        1.2900706137        0.2383895266
 H          3.5173185701        1.9511450751        0.3724720456
 H          6.6760764192       -0.8164212296       -0.1301873205
 H          5.0454474086       -2.6432956181       -0.4749986285
 H          2.6514734659       -2.1771966210       -0.3970434106
 H         -1.5747727023       -2.2972226735       -0.4165475863
 H         -3.9568875214       -1.7993819363       -0.3371944437
