35
 energy: -50.124915818492 gnorm: 0.000500939911 xtb: 6.5.1 (fef0646)
N            3.22033196267282       -2.05380431023637        1.94710262203701
C            2.51789957202354       -2.41453757405720        0.68043389112225
C            2.97697201379439       -1.43589480780161       -0.40417717620709
C            4.48108279688393       -1.47565431524933       -0.48209694261310
C            5.13158993158819       -2.39090238217149       -1.30319511883637
C            6.50754502814776       -2.48065317634887       -1.31124086022108
C            7.29265361707551       -1.66657667436383       -0.48527007365738
C            8.73973782074027       -1.71760614148501       -0.46270416006339
C            9.51620411569368       -2.28468807067101       -1.39865996606216
C           10.96567799479911       -2.31695189823780       -1.39600577012987
C           11.72291536188326       -2.01959341414175       -0.26061107589993
C           13.09939277017563       -2.06446567504322       -0.33584210771062
F           13.81153564011785       -1.78144111582183        0.77067051644142
C           13.76856147773918       -2.39076244112043       -1.50354551310104
C           13.01699089723487       -2.69042201167927       -2.62729757234460
C           11.63655942371640       -2.66160555851435       -2.57396396563044
C            6.63283977694872       -0.75895235444872        0.34881764182598
C            5.25245247649524       -0.66329120444535        0.35420696796633
H            3.27041517424631       -2.83288100644335        2.60950706015343
H            2.76495900593243       -1.25621091803266        2.40389304279874
H            4.18786104155526       -1.74881016985387        1.64071065883335
H            1.43906276128429       -2.38031386496746        0.82862088451965
H            2.80828027519435       -3.42904821072291        0.40478151686351
H            2.62926978367007       -0.42812743673823       -0.17180685133914
H            2.53657949852813       -1.73225190686894       -1.35457409836461
H            4.55040440937841       -3.02865249718337       -1.95241395178916
H            6.98133624530296       -3.19872693986625       -1.96060003777737
H            9.19734049920103       -1.20499365896707        0.37196487418395
H            9.05963358812910       -2.73408798904059       -2.27061434326169
H           11.26045957699169       -1.77197932523060        0.68101327478408
H           14.84613842851585       -2.41046017453428       -1.51853586122226
H           13.51494047461465       -2.95073522524663       -3.54829805553301
H           11.06347542776121       -2.89730465837210       -3.45849042087298
H            7.21224864936090       -0.10570332539231        0.98440042475453
H            4.78622248260311        0.12238043329664        0.93792054635329
