  15
        -16.13208922
 N         -1.8117162326        0.0000302456        0.1950464287
 C         -0.4686526915       -0.0000170449       -0.4695136337
 C          0.5128343865       -1.0858208044        0.0322194956
 C          1.6097853752       -0.0000070151        0.1367694294
 C          0.5128706175        1.0858137645        0.0321961669
 H         -2.3548351509        0.8318033921       -0.0740246630
 H         -1.7230822256        0.0000357104        1.2198653344
 H         -2.3549739175       -0.8318171722       -0.0740514124
 H         -0.5641193227       -0.0001240777       -1.5701583035
 H          0.7238098800       -1.8833791872       -0.6927543895
 H          0.2165088066       -1.5117605232        0.9978306488
 H          2.3082128080        0.0000159283       -0.7103549994
 H          2.1634379876        0.0000320445        1.0858559797
 H          0.7238860110        1.8832655572       -0.6928836153
 H          0.2165259810        1.5118786194        0.9977647181
