  15
  -16.132089220000001       0.28377647768447950      !mtd2
 N         -1.8117162326        0.0000302456        0.1950464287
 C         -0.4686526915       -0.0000170449       -0.4695136337
 C          0.5128343865       -1.0858208044        0.0322194956
 C          1.6097853752       -0.0000070151        0.1367694294
 C          0.5128706175        1.0858137645        0.0321961669
 H         -2.3548351509        0.8318033921       -0.0740246630
 H         -1.7230822256        0.0000357104        1.2198653344
 H         -2.3549739175       -0.8318171722       -0.0740514124
 H         -0.5641193227       -0.0001240777       -1.5701583035
 H          0.7238098800       -1.8833791872       -0.6927543895
 H          0.2165088066       -1.5117605232        0.9978306488
 H          2.3082128080        0.0000159283       -0.7103549994
 H          2.1634379876        0.0000320445        1.0858559797
 H          0.7238860110        1.8832655572       -0.6928836153
 H          0.2165259810        1.5118786194        0.9977647181
  15
  -16.132088589999999       0.28358735752341352      !mtd4
 N         -1.8116369284        0.0000769601        0.1950634594
 C         -0.4686871186       -0.0000553075       -0.4695387809
 C          0.5128582168       -1.0858518080        0.0321614774
 C          1.6097524043       -0.0000126234        0.1368248591
 C          0.5128099000        1.0858088518        0.0321608658
 H         -2.3549457071       -0.8317225707       -0.0738671464
 H         -2.3548230077        0.8319676201       -0.0738854973
 H         -1.7228720896        0.0000953987        1.2200778635
 H         -0.5641274863       -0.0001071783       -1.5701881636
 H          0.7239119736       -1.8833158310       -0.6929000894
 H          0.2165349521       -1.5118674114        0.9977423488
 H          2.3082908004       -0.0000940565       -0.7102211254
 H          2.1632920536        0.0001266527        1.0859886339
 H          0.7238296027        1.8833121274       -0.6928797268
 H          0.2164204354        1.5118571682        0.9977367262
  15
  -16.132088249999999       0.28348534504513817      !mtd5
 N         -1.8116726614        0.0000843763        0.1950420368
 C         -0.4686594718       -0.0000638154       -0.4695504134
 C          0.5128587733       -1.0858425648        0.0322315958
 C          1.6097734013       -0.0000014758        0.1367416965
 C          0.5128085568        1.0857773238        0.0322365741
 H         -1.7229813935        0.0002378584        1.2198739141
 H         -2.3549603710       -0.8316747255       -0.0738454283
 H         -2.3548307781        0.8319917261       -0.0741535509
 H         -0.5640851332       -0.0001010210       -1.5701989303
 H          0.7239126008       -1.8833466318       -0.6927911183
 H          0.2165567114       -1.5118414165        0.9978290984
 H          2.3081524216        0.0000468374       -0.7104226603
 H          2.1634728880        0.0000519533        1.0857987599
 H          0.7237436276        1.8833833299       -0.6926960880
 H          0.2164572252        1.5116350541        0.9978993991
  15
  -16.130444449999999        4.9784303741615271E-002 !mtd3
 N         -1.6998033620        0.0000765019        0.3642458902
 C         -0.4997563577       -0.0000502382       -0.5317643872
 C          0.5532856974       -1.0872735935       -0.2069919700
 C          1.4225320272       -0.0000035640        0.4678057094
 C          0.5532392476        1.0872189702       -0.2069991595
 H         -2.2837797501        0.8312784835        0.1980151553
 H         -1.4266692364        0.0001859840        1.3560115849
 H         -2.2837863119       -0.8312046824        0.1980348640
 H         -0.8021216472        0.0000175961       -1.5952680083
 H          1.0157639888       -1.5372694077       -1.0949473003
 H          0.1868802070       -1.8647142994        0.4748349089
 H          2.4756301862        0.0000632158        0.1539338874
 H          1.3547676640       -0.0000201086        1.5632766317
 H          1.0156305611        1.5372368014       -1.0949936941
 H          0.1868212272        1.8646553684        0.4748674496
  15
  -16.130442570000000        4.9685360985355809E-002 !mtd2
 N         -1.6997387341       -0.0000293290        0.3643170274
 C         -0.4997505284        0.0000345180       -0.5317992170
 C          0.5532245542       -1.0872298131       -0.2070515158
 C          1.4224130592       -0.0000090497        0.4679267330
 C          0.5533374561        1.0872384722       -0.2071126851
 H         -1.4265836123        0.0000400858        1.3560220917
 H         -2.2835650338       -0.8312801121        0.1981468002
 H         -2.2838388018        0.8311857561        0.1981124623
 H         -0.8022123124        0.0001141641       -1.5952741399
 H          1.0157194904       -1.5372189214       -1.0949878349
 H          0.1868168273       -1.8646898187        0.4747485201
 H          2.4755415909       -0.0000261997        0.1542137154
 H          1.3543947284        0.0000038982        1.5633803137
 H          1.0158966237        1.5370262572       -1.0951284730
 H          0.1869758150        1.8648457822        0.4745787410
  15
  -16.130442490000000        4.9681155019997751E-002 !mtd5
 N         -1.6997608943        0.0000147996        0.3643346581
 C         -0.4997534928        0.0000003906       -0.5317796900
 C          0.5532988307       -1.0872250132       -0.2070989739
 C          1.4223678573       -0.0000224920        0.4679719320
 C          0.5533258077        1.0872156803       -0.2071399755
 H         -2.2834456661       -0.8313772023        0.1984409187
 H         -2.2840165431        0.8308750467        0.1976981985
 H         -1.4267046089        0.0005888198        1.3561785582
 H         -0.8022734334       -0.0000638158       -1.5952461561
 H          1.0158949188       -1.5369205612       -1.0951390464
 H          0.1870667744       -1.8649298145        0.4745343716
 H          2.4755931872        0.0001504177        0.1545166362
 H          1.3541982447       -0.0000132255        1.5634183040
 H          1.0159494739        1.5369149277       -1.0951739627
 H          0.1870185876        1.8649443374        0.4744587988
