15
 energy: -16.134268442878 gnorm: 0.000841278055 xtb: 6.5.1 (fef0646)
N            0.97448903044702        0.04964038471250        0.21997944567068
C            2.46730140772341        0.05936920818847        0.05857906616844
C            3.20395766783212       -1.03987832415564        0.82770913853536
C            4.12983176600839        0.03334241908266        1.42923380973451
C            3.19704519530785        1.12705240530106        0.87726581702254
H            0.56937377024691       -0.79364940810782       -0.20553627045531
H            0.55433681006895        0.87951748296491       -0.21745291527784
H            0.74523067446697        0.05511020925696        1.22321962730354
H            2.69018249577659        0.08409644508098       -1.00809875197100
H            3.68418306869094       -1.80156023105531        0.22065615771358
H            2.58395857442799       -1.52984515571495        1.57560073860437
H            5.11407266440727        0.04687697019106        0.97324551812756
H            4.24337352681710        0.00899059281049        2.50791614391170
H            3.67216612013107        1.91926930927026        0.30628561417292
H            2.57391722764745        1.57805769217437        1.64695686073893
