  21
        -46.80531885
 N         -3.7308087162       -0.5235888926       -0.6595970167
 C         -3.1011652490        0.8303235268       -0.5705769420
 C         -2.1479888516        0.9706414378        0.6258605953
 C         -0.7669055819        0.4566279699        0.3615462811
 C          0.2748064780        1.3583696665        0.1689213690
 F          0.0208211868        2.6672582567        0.1770112565
 C          1.5747716362        0.9105733195       -0.0541520799
 F          2.5596896760        1.7883863615       -0.2337339263
 C          1.8404057000       -0.4517390123       -0.0954116994
 F          3.0826458101       -0.8855247977       -0.3087718018
 C          0.8044292243       -1.3604073974        0.0771417402
 F          1.0471665817       -2.6678500327        0.0140657578
 C         -0.4938851393       -0.9060765479        0.2999899841
 F         -1.4806486599       -1.7925104726        0.4090034286
 H         -4.4539092657       -0.6508080282        0.0633452338
 H         -3.0123881537       -1.2408463673       -0.4954504520
 H         -4.1685191582       -0.6970308455       -1.5770931109
 H         -3.9019472116        1.5826308561       -0.5235684807
 H         -2.5497495721        1.0421984467       -1.4969334060
 H         -2.5620348743        0.4463691098        1.4951114635
 H         -2.0626127164        2.0249321811        0.9234890172
  21
        -46.80466306
 N         -2.8932847012        2.0975872465        0.8044416173
 C         -3.1622111868        0.6683472941        0.4585585912
 C         -2.3382248896        0.1580002149       -0.7283861775
 C         -0.8919640537       -0.0460954439       -0.4138333984
 C         -0.0302445880        1.0388276850       -0.3147487639
 F         -0.5173842241        2.2731196359       -0.4202316946
 C          1.3237154168        0.8483031506       -0.0484853329
 F          2.1341418854        1.8992499906        0.0552740801
 C          1.8216253059       -0.4362348056        0.1296989037
 F          3.1169934511       -0.6221372165        0.3832002755
 C          0.9632140258       -1.5257311447        0.0523313007
 F          1.4308180580       -2.7581623151        0.2401032435
 C         -0.3897704417       -1.3272347068       -0.2136513375
 F         -1.2169486963       -2.3721553806       -0.2534766982
 H         -3.4578698552        2.4130688417        1.6080049432
 H         -3.1063561788        2.7177648241        0.0095680948
 H         -1.9017286585        2.2454616218        1.0394137254
 H         -4.2359358687        0.5605222924        0.2472529963
 H         -2.9660919660        0.0389148533        1.3371724982
 H         -2.4178727422        0.8626931057       -1.5648288265
 H         -2.7450154448       -0.7945024551       -1.0950984391
  21
        -46.80350247
 N         -3.1979637964        2.1662420034       -0.7972052579
 C         -3.0273512277        1.3048188381        0.4134051050
 C         -2.4182406824       -0.0749997877        0.1115396282
 C         -0.9203968292       -0.1519781253        0.0916401510
 C         -0.1022768717        0.9496551667       -0.1422213447
 F         -0.6308258911        2.1543974842       -0.3287217885
 C          1.2841238422        0.8126779992       -0.1808940486
 F          2.0482870980        1.8792985571       -0.4057705875
 C          1.8679725982       -0.4324401882        0.0092567810
 F          3.1939246368       -0.5636229168       -0.0270031184
 C          1.0625057903       -1.5400615109        0.2352297390
 F          1.6118539481       -2.7393422596        0.4164958154
 C         -0.3223307639       -1.3958820391        0.2720582081
 F         -1.0865893725       -2.4676268804        0.4872534608
 H         -3.6076153639        3.0810663679       -0.5546896116
 H         -3.8131975323        1.7233067753       -1.4955158721
 H         -2.2877066943        2.3492187813       -1.2424321632
 H         -4.0120424706        1.1904934805        0.8897383347
 H         -2.3983324994        1.8313225859        1.1452513663
 H         -2.7962655725       -0.4384719292       -0.8506796653
 H         -2.7684931590       -0.8068145589        0.8527862408
  21
        -46.80330497
 N         -3.1535711620        2.3148072483        0.3763409562
 C         -3.0519779244        1.1794000870       -0.5916448375
 C         -2.4224132933       -0.0900082908        0.0058734379
 C         -0.9243640068       -0.1656184085       -0.0135572817
 C         -0.1029732297        0.9520744927       -0.1311261963
 F         -0.6292654447        2.1651973257       -0.2620005854
 C          1.2846060349        0.8216756027       -0.1176167915
 F          2.0520359274        1.9032684260       -0.2329147279
 C          1.8665857415       -0.4312854246        0.0189812762
 F          3.1936085892       -0.5562510680        0.0316813745
 C          1.0583183028       -1.5525960845        0.1449048415
 F          1.6060626528       -2.7586161064        0.2805081952
 C         -0.3276217513       -1.4147719032        0.1314091175
 F         -1.0946370842       -2.4985643595        0.2586077297
 H         -3.7250297055        2.0652876691        1.1969099835
 H         -3.5793667855        3.1463587778       -0.0608886469
 H         -2.2191028808        2.5913997077        0.7089116632
 H         -2.4679999284        1.5018842962       -1.4654467295
 H         -4.0623821300        0.9623467107       -0.9678219998
 H         -2.7963683445       -0.9762787536       -0.5254450744
 H         -2.7610794534       -0.2126981686        1.0408237171
  21
        -46.80109377
 N         -3.0255022347        1.7189276305       -1.2761711604
 C         -3.0206322267        1.4261872035        0.1889014389
 C         -2.3890428109        0.0759176425        0.5481299248
 C         -0.9195985648       -0.0680050903        0.2884708676
 C         -0.0897756726        1.0033029428       -0.0307875979
 F         -0.5983016070        2.2183550406       -0.2148267954
 C          1.2801478655        0.8157346930       -0.2053201270
 F          2.0540393104        1.8500761524       -0.5265522538
 C          1.8356046545       -0.4482733899       -0.0604532664
 F          3.1461586385       -0.6274116938       -0.2256471695
 C          1.0180164505       -1.5246718173        0.2551395387
 F          1.5399451223       -2.7418759929        0.3919538085
 C         -0.3501453992       -1.3300335409        0.4292653544
 F         -1.1274391815       -2.3713264507        0.7308641129
 H         -3.5131795102        0.9836984743       -1.8090993706
 H         -2.0615052325        1.7902094698       -1.6326902960
 H         -3.4911393331        2.6167659484       -1.4799371783
 H         -4.0555397108        1.4693913186        0.5576225746
 H         -2.4813660678        2.2321691619        0.7077451765
 H         -2.9056707653       -0.7220679771        0.0014196437
 H         -2.5593839324       -0.1442101122        1.6105432782
  21
        -46.80101186
 N         -3.5259318196       -0.3954401876       -1.0309156607
 C         -3.3240764921        0.1867969235        0.3300607469
 C         -2.1293588406        1.1433355694        0.4228437877
 C         -0.7718639745        0.5416553556        0.2172867617
 C          0.3141497110        1.4022360552        0.0876967310
 F          0.1109644184        2.7205746915        0.0872178018
 C          1.6094282592        0.9089735015       -0.0500596388
 F          2.6325397423        1.7514731487       -0.1777515378
 C          1.8311448717       -0.4612436602       -0.0563113135
 F          3.0681714154       -0.9396493923       -0.1892259792
 C          0.7563685803       -1.3308287004        0.0709084566
 F          0.9577795780       -2.6464565403        0.0474482606
 C         -0.5371219945       -0.8305186165        0.2075660019
 F         -1.5508577016       -1.6880142918        0.2855329074
 H         -4.3605557879       -1.0009103528       -1.0623272345
 H         -2.7190045281       -0.9782464926       -1.2969264700
 H         -3.6431741916        0.3388512340       -1.7448453946
 H         -3.1915929464       -0.6352259391        1.0486481193
 H         -4.2466484671        0.7041445586        0.6301437868
 H         -2.1254760888        1.6412313868        1.4017522606
 H         -2.2530950105        1.9490686464       -0.3107286010
  21
        -46.80093113
 N         -3.5120157257       -0.3855852025       -1.0459369212
 C         -3.3248012089        0.1858414782        0.3216590579
 C         -2.1300601225        1.1400562584        0.4350557982
 C         -0.7727137878        0.5401895033        0.2239751464
 C          0.3123495091        1.4014029751        0.0907825368
 F          0.1084461239        2.7196237649        0.0909188347
 C          1.6073477651        0.9087050576       -0.0515990000
 F          2.6293711545        1.7516513464       -0.1849766867
 C          1.8297726825       -0.4614183793       -0.0581337761
 F          3.0663291476       -0.9392953617       -0.1971189118
 C          0.7559655431       -1.3315431563        0.0736013864
 F          0.9580215522       -2.6470796994        0.0500760789
 C         -0.5372913564       -0.8318217682        0.2143694158
 F         -1.5507470434       -1.6894959628        0.2946657953
 H         -2.7036644305       -0.9686052099       -1.3067005885
 H         -3.6185243013        0.3544981045       -1.7555706674
 H         -4.3480376426       -0.9884060847       -1.0920411452
 H         -3.2010827716       -0.6421424928        1.0349672578
 H         -4.2499767741        0.7018404138        0.6159796999
 H         -2.1294783257        1.6216675277        1.4221025952
 H         -2.2503602434        1.9578597991       -0.2857381653
  21
        -46.80084627
 N         -3.0037134442        1.6557755103       -1.3162497273
 C         -3.0204367678        1.4288807270        0.1602246525
 C         -2.3822280673        0.1025134806        0.5891405932
 C         -0.9179865991       -0.0543950276        0.3103914837
 C         -0.0856151884        1.0123689744       -0.0166117921
 F         -0.5914211644        2.2285090210       -0.2021068977
 C          1.2813293193        0.8173969756       -0.2050686454
 F          2.0575753402        1.8478569414       -0.5330736025
 C          1.8309271734       -0.4500354363       -0.0670305060
 F          3.1379321522       -0.6373640917       -0.2497982396
 C          1.0106185661       -1.5218924575        0.2570870643
 F          1.5264941100       -2.7427929830        0.3841428999
 C         -0.3544828119       -1.3196621044        0.4457333057
 F         -1.1352094523       -2.3569076972        0.7521875222
 H         -2.0347976414        1.7257182886       -1.6592958676
 H         -3.4788260342        2.5361857042       -1.5684185551
 H         -3.4711235597        0.8896605762       -1.8234044124
 H         -4.0609925359        1.4788941302        0.5117131537
 H         -2.4962311950        2.2626981080        0.6497845869
 H         -2.9068332474       -0.7267075803        0.0991926184
 H         -2.5338665957       -0.0541355907        1.6654843905
  21
        -46.79932062
 N         -3.0093374051        1.3401912640        1.3801538046
 C         -3.0111848081        1.3959444066       -0.1118201386
 C         -2.3349006369        0.1883560897       -0.7694731610
 C         -0.8991646260       -0.0090258725       -0.3981663538
 C         -0.0253914082        1.0653405176       -0.2717654174
 F         -0.4887243375        2.3105498670       -0.3531068168
 C          1.3268020405        0.8556641613       -0.0092932008
 F          2.1450327993        1.8965266855        0.1289464937
 C          1.8167243055       -0.4366679479        0.1261692120
 F          3.1089396081       -0.6391131200        0.3833203607
 C          0.9524292409       -1.5165282223        0.0034506222
 F          1.4117359248       -2.7582515865        0.1441035469
 C         -0.3981458319       -1.2994787496       -0.2595269382
 F         -1.2252344323       -2.3408409921       -0.3580521786
 H         -3.4828485789        0.4919578223        1.7244497275
 H         -3.4910931401        2.1551022192        1.7904322265
 H         -2.0466867854        1.3370981475        1.7473629578
 H         -2.5076534351        2.3201798058       -0.4304107217
 H         -4.0492448133        1.4860076883       -0.4626437606
 H         -2.3960134215        0.2684184316       -1.8627951284
 H         -2.8838373585       -0.7252838594       -0.5089803593
  21
        -46.79774730
 N         -4.3277473276        1.5174816754        0.0947507970
 C         -2.8622521954        1.3304893525        0.3117451757
 C         -2.2811171662        0.1004334944       -0.3816840202
 C         -0.8080686320       -0.0593031042       -0.1787730431
 C          0.0500356155        1.0351380505       -0.2107231527
 F         -0.4465944224        2.2652232619       -0.3394901239
 C          1.4252969203        0.8599946707       -0.0717961658
 F          2.2353365784        1.9162418069       -0.0970671827
 C          1.9499775168       -0.4150560044        0.0986144157
 F          3.2652103668       -0.5839039599        0.2344270380
 C          1.0996661232       -1.5130826864        0.1309494044
 F          1.5959329484       -2.7370542799        0.2993832186
 C         -0.2740879822       -1.3315781995       -0.0101162659
 F         -1.0927260273       -2.3835054207        0.0312633448
 H         -4.6761749451        2.3627197041        0.5720229431
 H         -4.8641246480        0.7151045963        0.4559984230
 H         -4.5480847005        1.6160739123       -0.9071555439
 H         -2.6556050634        1.2815436205        1.3894664155
 H         -2.3317312235        2.2183642743       -0.0552232683
 H         -2.4829288977        0.1469050615       -1.4582514510
 H         -2.7834239807       -0.8051207489       -0.0205865784
