13
 energy: -17.977462914462 gnorm: 0.000769935181 xtb: 6.5.1 (fef0646)
N            1.17673755549272        0.26697819986325       -0.27044199334813
C            2.60023207733445        0.17840929306534        0.05328447663603
C            3.53765401422834        1.13278031958267       -0.61751945457684
C            3.53511404261907       -0.31923355961329       -1.00135091464631
Cl          -0.36510658803885       -2.28970344909037        0.28358374144131
H            0.71308490983567        0.98191674656327        0.29735519346672
H            0.68222872927018       -0.64726615011887       -0.08098575625387
H            1.04282020641087        0.47986135256328       -1.26283577882179
H            2.77170062094064       -0.10757283997526        1.08025971050000
H            4.37104523595965        1.51467851698404       -0.05091863433975
H            3.13025814497797        1.84302971345413       -1.31855939883891
H            4.36188265632668       -0.94099807254942       -0.69990014558097
H            3.11796839464299       -0.59915007072924       -1.95510104563738
