  15
  -16.106720679999999        6.1898947134117935E-002 !mtd6
 N          1.8833222337       -0.6409966642       -0.0610673039
 C          1.0673668208        0.4787705472        0.4925203597
 C         -0.1282369493        0.8473418762       -0.3886360431
 C         -1.1649235774       -0.2225985168       -0.4675346571
 C         -2.1468041824       -0.3493784321        0.4037196750
 H          2.6870543599       -0.8622304745        0.5464078852
 H          2.2578141084       -0.4044526967       -0.9916887486
 H          1.3253084656       -1.5015956760       -0.1584303737
 H          1.7188927626        1.3524264218        0.6319365175
 H          0.7168627767        0.2060633996        1.4959029161
 H          0.2266765569        1.0917810425       -1.3975318121
 H         -0.5990162397        1.7688801895       -0.0225344682
 H         -1.0889387700       -0.9381638815       -1.2741749412
 H         -2.2614233268        0.3381706717        1.2206135206
 H         -2.8816891671       -1.1299277194        0.3206460751
  15
  -16.106719630000001        6.1830209124997051E-002 !mtd3
 N          1.8738373816       -0.6002910624        0.2800782100
 C          1.0846979422        0.3467381316       -0.5604492192
 C         -0.1372799418        0.9194166885        0.1609929905
 C         -1.1806669801       -0.1007882402        0.4711672382
 C         -2.1289857311       -0.4515507150       -0.3755183010
 H          1.3069075827       -1.4111624577        0.5675048589
 H          2.2182211785       -0.1407188168        1.1359042405
 H          2.6960907801       -0.9632480442       -0.2259538437
 H          0.7663058874       -0.1660023633       -1.4767937478
 H          1.7464268387        1.1600340733       -0.8889166398
 H         -0.5917792747        1.7182367851       -0.4390262618
 H          0.1857903277        1.4097977569        1.0877906138
 H         -1.1388227090       -0.5859676347        1.4362318441
 H         -2.2093873490        0.0038359294       -1.3447238713
 H         -2.8698980590       -1.1890531986       -0.1238120989
  15
  -16.106719569999999        6.1826283545026221E-002 !gc
 N          1.8777413686       -0.5989749635        0.2772242091
 C          1.0846582867        0.3480769728       -0.5595733780
 C         -0.1373853087        0.9161415044        0.1654521664
 C         -1.1805160069       -0.1061537687        0.4695934707
 C         -2.1337583849       -0.4462066593       -0.3759438278
 H          2.6996984671       -0.9590167057       -0.2314108817
 H          1.3133147520       -1.4117816171        0.5641889780
 H          2.2230245356       -0.1404651487        1.1332100193
 H          0.7657461740       -0.1631622197       -1.4765781693
 H          1.7438731402        1.1637264760       -0.8872642787
 H         -0.5920961180        1.7184311748       -0.4297464375
 H          0.1855699767        1.4010734299        1.0951460600
 H         -1.1339541883       -0.6023884310        1.4287893635
 H         -2.2186075635        0.0200880722       -1.3395538773
 H         -2.8741632298       -1.1857117056       -0.1286652075
  15
  -16.106709939999998        6.1199447261704579E-002 !mtd7
 N          1.8815222651       -0.6420389965       -0.0598607761
 C          1.0664658574        0.4789787316        0.4924985468
 C         -0.1279513180        0.8484625382       -0.3898708782
 C         -1.1654455113       -0.2206253250       -0.4695613046
 C         -2.1435052940       -0.3512730262        0.4053949143
 H          1.3222774354       -1.5017752185       -0.1580108576
 H          2.6840413281       -0.8644954026        0.5488083062
 H          2.2577055395       -0.4061396959       -0.9899149430
 H          1.7188918807        1.3519403893        0.6320528262
 H          0.7147963092        0.2071723856        1.4957131476
 H          0.2281995971        1.0924199471       -1.3984496337
 H         -0.5983322629        1.7704631697       -0.0244132784
 H         -1.0935303687       -0.9321516346       -1.2801602877
 H         -2.2540698687        0.3322360202        1.2262252055
 H         -2.8791837974       -1.1310057893        0.3216920478
  15
  -16.106709620000000        6.1178727269548622E-002 !md7
 N          1.8807417775       -0.6425273906       -0.0594150067
 C          1.0663077536        0.4792168345        0.4923855709
 C         -0.1278942812        0.8489385074       -0.3901677664
 C         -1.1655218362       -0.2200021652       -0.4702189944
 C         -2.1423609350       -0.3519833648        0.4058908915
 H          2.2567618374       -0.4073128035       -0.9897300732
 H          1.3210273401       -1.5020607984       -0.1569065871
 H          2.6832977233       -0.8650100979        0.5491241855
 H          1.7192256019        1.3518794449        0.6315107668
 H          0.7145077134        0.2080569521        1.4957275170
 H          0.2285135201        1.0929775332       -1.3986346837
 H         -0.5982676855        1.7709158172       -0.0246385286
 H         -1.0948692745       -0.9301079188       -1.2821772068
 H         -2.2518313225        0.3301307550        1.2280244298
 H         -2.8782465015       -1.1314881418        0.3218592918
  15
  -16.106709450000000        6.1167722627104543E-002 !mtd1
 N          1.8746799337       -0.5993588551        0.2808571839
 C          1.0839955033        0.3449857158       -0.5612338479
 C         -0.1371454881        0.9193372695        0.1603288620
 C         -1.1813894900       -0.0996448747        0.4716549798
 C         -2.1287725608       -0.4519128201       -0.3754423887
 H          2.2212055854       -0.1368722186        1.1342222109
 H          2.6956592724       -0.9644746729       -0.2257849274
 H          1.3080276683       -1.4089185955        0.5724192949
 H          0.7644428893       -0.1704013793       -1.4756837469
 H          1.7450338997        1.1575436023       -0.8929045731
 H         -0.5911955663        1.7181049657       -0.4400989070
 H          0.1868047345        1.4101238186        1.0866000454
 H         -1.1410965092       -0.5824889724        1.4379672096
 H         -2.2075386936        0.0011716725       -1.3458435868
 H         -2.8703586268       -1.1884714517       -0.1229656093
  15
  -16.106705710000000        6.0926120671890009E-002 !gc
 N          1.8973428233       -0.6733195031        0.1955616562
 C          1.2673007318        0.5950439696       -0.2747314282
 C         -0.1674545445        0.7774462865        0.2273611581
 C         -1.1379351728       -0.1943703974       -0.3507926656
 C         -2.3485367458       -0.3857526460        0.1364249893
 H          1.9465898359       -0.7043298055        1.2245099597
 H          2.8596195498       -0.7752884909       -0.1616756584
 H          1.3640763292       -1.4985985716       -0.1141950866
 H          1.2828986478        0.6236189627       -1.3717243309
 H          1.8923694265        1.4377056534        0.0516265075
 H         -0.5179531222        1.7946334310        0.0090844020
 H         -0.1790692788        0.6885194399        1.3199415050
 H         -0.8419155911       -0.7266313893       -1.2430052418
 H         -2.6925767053        0.1491351670        1.0019422681
 H         -3.0401727001       -1.0742275445       -0.3151142821
  15
  -16.106665620000001        5.8395507612654635E-002 !mtd7
 N          1.8987629914       -0.6728269121        0.1921839083
 C          1.2670936041        0.5965675910       -0.2732479167
 C         -0.1677320784        0.7755843437        0.2298068004
 C         -1.1362830732       -0.1990317157       -0.3467023920
 C         -2.3513321776       -0.3816467232        0.1328038819
 H          1.3687566343       -1.4978923760       -0.1237614285
 H          1.9449889984       -0.7095219815        1.2210819755
 H          2.8624085387       -0.7705231732       -0.1624365512
 H          1.2824203847        0.6290884171       -1.3701294066
 H          1.8911688481        1.4388200195        0.0560519971
 H         -0.5208737671        1.7916760870        0.0106715941
 H         -0.1784710068        0.6876076510        1.3224759809
 H         -0.8347340492       -0.7420816025       -1.2305208958
 H         -2.7006694526        0.1638730743        0.9895461796
 H         -3.0414641228       -1.0727044619       -0.3170632782
  15
  -16.106660500000000        5.8079978761812062E-002 !md7
 N          1.9033879617       -0.6787010334       -0.1113318784
 C          1.2591245213        0.6077074568        0.2850004174
 C         -0.1607343530        0.7653914734       -0.2654331350
 C         -1.1457072712       -0.1860799856        0.3218127785
 C         -2.3472098354       -0.3875094014       -0.1835910507
 H          1.9787098477       -0.7563830619       -1.1362022867
 H          1.3644380392       -1.4909847827        0.2221881918
 H          2.8565844793       -0.7613218296        0.2740288558
 H          1.8925931785        1.4366717925       -0.0596782230
 H          1.2432170161        0.6839058804        1.3797206171
 H         -0.1404275277        0.6338021203       -1.3534832887
 H         -0.5195799205        1.7892610563       -0.0972241596
 H         -0.8691225531       -0.6941750672        1.2341213646
 H         -2.6722750292        0.1240300256       -1.0703244096
 H         -3.0501223579       -1.0605967479        0.2736738751
  15
  -16.106660110000000        5.8056014332917433E-002 !gc
 N          1.9036376509       -0.6784171188       -0.1116361608
 C          1.2590047877        0.6075709149        0.2854272764
 C         -0.1606801592        0.7651141643       -0.2654481133
 C         -1.1456825607       -0.1864566828        0.3215943522
 C         -2.3474838536       -0.3870733170       -0.1834222750
 H          2.8560696583       -0.7619548057        0.2754599921
 H          1.9808667881       -0.7542755384       -1.1365245510
 H          1.3639681940       -1.4911065795        0.2195944423
 H          1.8923848758        1.4369419788       -0.0584452980
 H          1.2426736234        0.6829839637        1.3801982442
 H         -0.1400329545        0.6334529588       -1.3534804886
 H         -0.5196982041        1.7889502314       -0.0973804182
 H         -0.8690237163       -0.6952372992        1.2335040082
 H         -2.6724670618        0.1249197707       -1.0699244206
 H         -3.0504439453       -1.0601867360        0.2737309693
  15
  -16.106657320000000        5.7884864641373962E-002 !mtd7
 N          1.9036992527       -0.6783388692       -0.1117656311
 C          1.2590327797        0.6075757956        0.2855076091
 C         -0.1607163996        0.7651631480       -0.2651952202
 C         -1.1455325415       -0.1869634374        0.3212395211
 C         -2.3476900039       -0.3867228608       -0.1832576461
 H          1.3645874441       -1.4910245203        0.2204412659
 H          2.8566619278       -0.7613261863        0.2742018732
 H          1.9797495101       -0.7548816147       -1.1366483366
 H          1.8923384610        1.4369943660       -0.0583806853
 H          1.2428371219        0.6828876626        1.3802861177
 H         -0.1400952414        0.6341869301       -1.3533124017
 H         -0.5199178858        1.7888236623       -0.0964667663
 H         -0.8682397503       -0.6970915649        1.2322004459
 H         -2.6732766392        0.1264870288       -1.0688344366
 H         -3.0504365655       -1.0604345562        0.2733402503
  15
  -16.106648029999999        5.7318607840803316E-002 !md4
 N          1.9000128915       -0.6722468847        0.1911939850
 C          1.2668050691        0.5967430461       -0.2732665448
 C         -0.1677514929        0.7743768165        0.2310603701
 C         -1.1361566680       -0.2004183483       -0.3453800463
 C         -2.3526767102       -0.3799981647        0.1315261180
 H          2.8634619555       -0.7689506585       -0.1642915362
 H          1.3705015206       -1.4977362128       -0.1245435708
 H          1.9471612125       -0.7092279378        1.2199963493
 H          1.2811699586        0.6296701596       -1.3701494486
 H          1.8904304052        1.4394189157        0.0558044424
 H         -0.5217217343        1.7903861014        0.0128919649
 H         -0.1776148071        0.6856063998        1.3236755058
 H         -0.8329772508       -0.7466322579       -1.2266832785
 H         -2.7035044461        0.1683842029        0.9858289308
 H         -3.0425595249       -1.0714599283       -0.3181042111
  15
  -16.106532380000001        5.0716184560383737E-002 !gc
 N          1.9084674003       -0.6682274621        0.1848026650
 C          1.2647156308        0.5976542134       -0.2737518108
 C         -0.1678209776        0.7662441975        0.2394965623
 C         -1.1355410269       -0.2094486508       -0.3365250621
 C         -2.3614956515       -0.3690661154        0.1229566730
 H          1.3817347733       -1.4964616043       -0.1282654194
 H          1.9630888316       -0.7061231774        1.2132440141
 H          2.8699506722       -0.7586885427       -0.1775094716
 H          1.2722204482        0.6326549052       -1.3706424127
 H          1.8853667650        1.4434120177        0.0530521603
 H         -0.5271480149        1.7818225746        0.0282711951
 H         -0.1715098625        0.6717690870        1.3316828894
 H         -0.8219554990       -0.7767225170       -1.2006944754
 H         -2.7214677538        0.1984854372        0.9607870985
 H         -3.0499395239       -1.0631528066       -0.3248335817
  15
  -16.106519349999999        5.0021694582212513E-002 !gc
 N          1.9096564839       -0.6676796619        0.1847734314
 C          1.2644341233        0.5972874687       -0.2742106189
 C         -0.1677960271        0.7653302705        0.2401472128
 C         -1.1360601821       -0.2094940786       -0.3364534000
 C         -2.3622087303       -0.3684616362        0.1227510124
 H          1.9655100494       -0.7045434614        1.2131682479
 H          2.8708375628       -0.7578609479       -0.1785548035
 H          1.3832779563       -1.4966912329       -0.1267714730
 H          1.2709091588        0.6314116879       -1.3711338243
 H          1.8847849539        1.4437526817        0.0513295036
 H         -0.5271634948        1.7811868477        0.0303227158
 H         -0.1708390912        0.6696905881        1.3322340438
 H         -0.8227518810       -0.7764248625       -1.2009467089
 H         -2.7217692680        0.1990452280        0.9607907416
 H         -3.0512379946       -1.0615844403       -0.3256295057
  15
  -16.106509750000001        4.9516113036363670E-002 !gc
 N          1.9139599711       -0.6706209527       -0.1200707430
 C          1.2568878183        0.6033997749        0.2949727350
 C         -0.1612691253        0.7599064363       -0.2603656579
 C         -1.1440956083       -0.2043166911        0.3093686010
 C         -2.3589651173       -0.3703716184       -0.1765239479
 H          2.8654539241       -0.7522827118        0.2697372125
 H          1.9963536857       -0.7294538929       -1.1456750042
 H          1.3799764867       -1.4931990176        0.1955502692
 H          1.8856138042        1.4431440189       -0.0318527707
 H          1.2344469676        0.6605953076        1.3907393944
 H         -0.1353648864        0.6428790386       -1.3499743143
 H         -0.5265041932        1.7794282126       -0.0800590400
 H         -0.8520602790       -0.7569815166        1.1903890814
 H         -2.6977269913        0.1831736339       -1.0323830532
 H         -3.0591843243       -1.0555877431        0.2666427649
  15
  -16.106504680000000        4.9251168077444493E-002 !gc
 N          1.9144394723       -0.6702959887       -0.1203577824
 C          1.2567620526        0.6031871201        0.2953758459
 C         -0.1612542543        0.7595907408       -0.2603643480
 C         -1.1441813662       -0.2046882139        0.3090983363
 C         -2.3593537481       -0.3698836797       -0.1763269495
 H          1.3806558712       -1.4933278789        0.1944867009
 H          2.8658846265       -0.7518635518        0.2696487495
 H          1.9970624081       -0.7283582870       -1.1459438982
 H          1.8853177615        1.4433832695       -0.0306187205
 H          1.2339050559        0.6595945772        1.3911744436
 H         -0.1350438143        0.6425736810       -1.3499670034
 H         -0.5266135601        1.7790864565       -0.0801610416
 H         -0.8519529274       -0.7582197125        1.1895058127
 H         -2.6982887104        0.1844207004       -1.0316211697
 H         -3.0596113675       -1.0551809580        0.2666533082
  15
  -16.106496280000002        4.8815322438816304E-002 !mtd1
 N          1.9112426759       -0.6669316804        0.1832382473
 C          1.2640320909        0.5976380877       -0.2740793909
 C         -0.1678533926        0.7637439975        0.2418753095
 C         -1.1357502108       -0.2116510747       -0.3343669401
 C         -2.3639828311       -0.3660508119        0.1207830266
 H          2.8722190357       -0.7555363217       -0.1809481499
 H          1.3857211128       -1.4963907903       -0.1286914299
 H          1.9678928300       -0.7046876886        1.2115325050
 H          1.2693318655        0.6326531154       -1.3709816282
 H          1.8837600557        1.4445460546        0.0514989311
 H         -0.5284604606        1.7793749435        0.0331147466
 H         -0.1697448478        0.6673237422        1.3339013848
 H         -0.8198547635       -0.7837232874       -1.1945071586
 H         -2.7260917818        0.2059729726        0.9546415556
 H         -3.0523358687       -1.0602450116       -0.3269866421
  15
  -16.105478210000001        1.6622011744729909E-002 !mtd4
 N          2.3345651366       -0.2233268048       -0.0256776277
 C          0.9774926679        0.1438064159        0.4775977762
 C         -0.0974945815        0.0961108243       -0.6068395385
 C         -1.4562434089        0.4705321190       -0.1136955001
 C         -2.3650287071       -0.4065521873        0.2660613675
 H          2.3447859695       -1.1784413759       -0.4123682800
 H          3.0418176837       -0.1858862632        0.7240032444
 H          2.6420376182        0.4173357222       -0.7719395823
 H          1.0152633730        1.1489561254        0.9167505926
 H          0.7025806496       -0.5276011237        1.3008648369
 H         -0.1332563316       -0.9080550956       -1.0447048157
 H          0.1889662470        0.7555508493       -1.4355425668
 H         -1.6852355642        1.5244348561       -0.0389005508
 H         -2.1772018021       -1.4627725683        0.2197206766
 H         -3.3322681406       -0.1014667316        0.6233895890
  15
  -16.104362429999998        5.1039522238823616E-003 !md6
 N          2.3932226809       -0.0812236418       -0.2431483494
 C          1.1177981425        0.2222981643        0.4716333100
 C         -0.1242936774       -0.1648403104       -0.3305827471
 C         -1.4104167415        0.1342138862        0.3625281938
 C         -2.5918583541       -0.0826401149       -0.1816083932
 H          3.2166838183        0.1888312137        0.3159734181
 H          2.4489604968        0.4249417428       -1.1390737025
 H          2.4760118314       -1.0876754293       -0.4483506196
 H          1.0853736796        1.2928808262        0.7113267585
 H          1.1132849481       -0.2993213703        1.4373179830
 H         -0.0853523388       -1.2340999596       -0.5688931223
 H         -0.1085345925        0.3531013973       -1.2965942733
 H         -1.3601319179        0.5430533839        1.3615022123
 H         -2.6836443743       -0.4912172405       -1.1706306183
 H         -3.5059733924        0.1389491633        0.3395590304
  15
  -16.104361350000001        5.0981225017956763E-003 !md8
 N          2.3932320784       -0.0828929878       -0.2424757464
 C          1.1178103434        0.2244058113        0.4706971772
 C         -0.1242875027       -0.1655696012       -0.3301314051
 C         -1.4104406027        0.1367905524        0.3614835880
 C         -2.5918616227       -0.0843923324       -0.1809593668
 H          2.4494071152        0.4193109337       -1.1405766302
 H          2.4755571134       -1.0903190027       -0.4432694066
 H          3.2167000717        0.1891840510        0.3156185475
 H          1.0858961655        1.2960392761        0.7057285703
 H          1.1128000538       -0.2930112750        1.4386370178
 H         -0.0856713085       -1.2358256664       -0.5639724052
 H         -0.1081846004        0.3483340690       -1.2982951160
 H         -1.3602150740        0.5523557093        1.3576889033
 H         -2.6836083491       -0.4995309242       -1.1672573212
 H         -3.5060293010        0.1398548045        0.3389790469
  15
  -16.104360400000001        5.0930000104207887E-003 !mtd4
 N          2.3935187700       -0.1203859009       -0.2232201855
 C          1.1175117420        0.2661038370        0.4492241662
 C         -0.1242275795       -0.1746589980       -0.3253891801
 C         -1.4108914352        0.1970691734        0.3305517689
 C         -2.5915532421       -0.1280521363       -0.1585853947
 H          2.4613627445       -1.1423884145       -0.3366075640
 H          3.2167768423        0.1857862263        0.3173254258
 H          2.4648538761        0.3023668657       -1.1602929030
 H          1.1000241929        1.3544341699        0.5901324216
 H          1.0973340947       -0.1651667819        1.4583250026
 H         -0.0957451828       -1.2609178806       -0.4693691519
 H         -0.0972772658        0.2569195535       -1.3327779058
 H         -1.3617598580        0.7648707727        1.2486084263
 H         -2.6822291053       -0.6887347065       -1.0701515105
 H         -3.5061307082        0.1536215484        0.3318571034
