  15
        -16.10672068
 N          1.8833222337       -0.6409966642       -0.0610673039
 C          1.0673668208        0.4787705472        0.4925203597
 C         -0.1282369493        0.8473418762       -0.3886360431
 C         -1.1649235774       -0.2225985168       -0.4675346571
 C         -2.1468041824       -0.3493784321        0.4037196750
 H          2.6870543599       -0.8622304745        0.5464078852
 H          2.2578141084       -0.4044526967       -0.9916887486
 H          1.3253084656       -1.5015956760       -0.1584303737
 H          1.7188927626        1.3524264218        0.6319365175
 H          0.7168627767        0.2060633996        1.4959029161
 H          0.2266765569        1.0917810425       -1.3975318121
 H         -0.5990162397        1.7688801895       -0.0225344682
 H         -1.0889387700       -0.9381638815       -1.2741749412
 H         -2.2614233268        0.3381706717        1.2206135206
 H         -2.8816891671       -1.1299277194        0.3206460751
  15
        -16.10670571
 N          1.8973428233       -0.6733195031        0.1955616562
 C          1.2673007318        0.5950439696       -0.2747314282
 C         -0.1674545445        0.7774462865        0.2273611581
 C         -1.1379351728       -0.1943703974       -0.3507926656
 C         -2.3485367458       -0.3857526460        0.1364249893
 H          1.9465898359       -0.7043298055        1.2245099597
 H          2.8596195498       -0.7752884909       -0.1616756584
 H          1.3640763292       -1.4985985716       -0.1141950866
 H          1.2828986478        0.6236189627       -1.3717243309
 H          1.8923694265        1.4377056534        0.0516265075
 H         -0.5179531222        1.7946334310        0.0090844020
 H         -0.1790692788        0.6885194399        1.3199415050
 H         -0.8419155911       -0.7266313893       -1.2430052418
 H         -2.6925767053        0.1491351670        1.0019422681
 H         -3.0401727001       -1.0742275445       -0.3151142821
  15
        -16.10653238
 N          1.9084674003       -0.6682274621        0.1848026650
 C          1.2647156308        0.5976542134       -0.2737518108
 C         -0.1678209776        0.7662441975        0.2394965623
 C         -1.1355410269       -0.2094486508       -0.3365250621
 C         -2.3614956515       -0.3690661154        0.1229566730
 H          1.3817347733       -1.4964616043       -0.1282654194
 H          1.9630888316       -0.7061231774        1.2132440141
 H          2.8699506722       -0.7586885427       -0.1775094716
 H          1.2722204482        0.6326549052       -1.3706424127
 H          1.8853667650        1.4434120177        0.0530521603
 H         -0.5271480149        1.7818225746        0.0282711951
 H         -0.1715098625        0.6717690870        1.3316828894
 H         -0.8219554990       -0.7767225170       -1.2006944754
 H         -2.7214677538        0.1984854372        0.9607870985
 H         -3.0499395239       -1.0631528066       -0.3248335817
  15
        -16.10547821
 N          2.3345651366       -0.2233268048       -0.0256776277
 C          0.9774926679        0.1438064159        0.4775977762
 C         -0.0974945815        0.0961108243       -0.6068395385
 C         -1.4562434089        0.4705321190       -0.1136955001
 C         -2.3650287071       -0.4065521873        0.2660613675
 H          2.3447859695       -1.1784413759       -0.4123682800
 H          3.0418176837       -0.1858862632        0.7240032444
 H          2.6420376182        0.4173357222       -0.7719395823
 H          1.0152633730        1.1489561254        0.9167505926
 H          0.7025806496       -0.5276011237        1.3008648369
 H         -0.1332563316       -0.9080550956       -1.0447048157
 H          0.1889662470        0.7555508493       -1.4355425668
 H         -1.6852355642        1.5244348561       -0.0389005508
 H         -2.1772018021       -1.4627725683        0.2197206766
 H         -3.3322681406       -0.1014667316        0.6233895890
  15
        -16.10436243
 N          2.3932226809       -0.0812236418       -0.2431483494
 C          1.1177981425        0.2222981643        0.4716333100
 C         -0.1242936774       -0.1648403104       -0.3305827471
 C         -1.4104167415        0.1342138862        0.3625281938
 C         -2.5918583541       -0.0826401149       -0.1816083932
 H          3.2166838183        0.1888312137        0.3159734181
 H          2.4489604968        0.4249417428       -1.1390737025
 H          2.4760118314       -1.0876754293       -0.4483506196
 H          1.0853736796        1.2928808262        0.7113267585
 H          1.1132849481       -0.2993213703        1.4373179830
 H         -0.0853523388       -1.2340999596       -0.5688931223
 H         -0.1085345925        0.3531013973       -1.2965942733
 H         -1.3601319179        0.5430533839        1.3615022123
 H         -2.6836443743       -0.4912172405       -1.1706306183
 H         -3.5059733924        0.1389491633        0.3395590304
