  15
  -16.219214109999999        6.1621961506121370E-002 !mtd9
 N         -1.7979894009       -0.7884062925        0.1265504700
 C         -1.2925504741        0.5769851341       -0.2081233300
 C          0.1368663748        0.8180721622        0.2799866121
 C          1.1474344680       -0.0325800221       -0.4087311757
 C          2.2737119425       -0.4197793610        0.1539757982
 H         -1.8114971649       -0.9301104742        1.1415500661
 H         -1.1955814576       -1.5095058321       -0.2832461838
 H         -2.7494461738       -0.9309485128       -0.2278784013
 H         -1.9721512530        1.3207333230        0.2265506225
 H         -1.3416802253        0.7242959606       -1.2933551892
 H          0.1827801200        0.6315502323        1.3582390764
 H          0.4140622395        1.8711714067        0.1483289116
 H          0.9580695524       -0.2916009703       -1.4387636819
 H          2.5099479344       -0.1506781133        1.1645090204
 H          2.9948111636       -1.0124883462       -0.3750963701
  15
  -16.219211810000001        6.1472165374572028E-002 !gc
 N         -1.7986866762       -0.7939280035       -0.0690889948
 C         -1.2909738016        0.5878988505        0.1850852335
 C          0.1345609004        0.8009857268       -0.3268254715
 C          1.1505093079       -0.0092097612        0.4016146912
 C          2.2724061723       -0.4285841367       -0.1465893210
 H         -1.1912957267       -1.4913814870        0.3729013887
 H         -1.8224936280       -0.9906980769       -1.0747145020
 H         -2.7462887856       -0.9175901206        0.3025276272
 H         -1.3314258161        0.7955916755        1.2607417220
 H         -1.9742073983        1.3063646467       -0.2850195013
 H          0.4123741387        1.8600695850       -0.2570823683
 H          0.1724871216        0.5536793460       -1.3928630734
 H          0.9690600219       -0.2086003019        1.4462526448
 H          2.5009276698       -0.2178598456       -1.1726416944
 H          2.9974703928       -0.9904373944        0.4100188988
  15
  -16.219210730000000        6.1401952013306248E-002 !md2
 N         -1.7988357770       -0.7936755087       -0.0693067757
 C         -1.2910288450        0.5880527117        0.1851840568
 C          0.1346046094        0.8007479276       -0.3265210805
 C          1.1502300235       -0.0102309116        0.4014771262
 C          2.2728730094       -0.4277992438       -0.1465673085
 H         -2.7469935333       -0.9167183433        0.3008784959
 H         -1.1923962837       -1.4912253363        0.3739486105
 H         -1.8212214624       -0.9908659410       -1.0748881874
 H         -1.3317397114        0.7955642158        1.2608644478
 H         -1.9739899241        1.3067246961       -0.2850061678
 H          0.4128831626        1.8596877256       -0.2563984648
 H          0.1723791617        0.5537687625       -1.3926364743
 H          0.9679578471       -0.2117984151        1.4455476340
 H          2.5018907222       -0.2154202379       -1.1721656182
 H          2.9978100824       -0.9902722752        0.4095753258
  15
  -16.219199860000000        6.0699717770084344E-002 !md7
 N         -1.7998787177       -0.7874258866        0.1266803656
 C         -1.2921859416        0.5768858488       -0.2090171335
 C          0.1368601416        0.8163622071        0.2809388818
 C          1.1475245018       -0.0338637717       -0.4081390258
 C          2.2755564128       -0.4179221645        0.1531852787
 H         -1.1964047731       -1.5098694125       -0.2790533655
 H         -2.7500655974       -0.9302080344       -0.2310690664
 H         -1.8173597382       -0.9267683490        1.1419993574
 H         -1.9714689457        1.3220082261        0.2238103223
 H         -1.3394323021        0.7230842420       -1.2944834229
 H          0.1815693074        0.6280263847        1.3589289750
 H          0.4148964850        1.8694726195        0.1511640009
 H          0.9567517925       -0.2950924328       -1.4373658588
 H          2.5130400125       -0.1467880168        1.1628868868
 H          2.9967211587       -1.0103443963       -0.3761178980
  15
  -16.219197139999999        6.0525257575194606E-002 !mtd10
 N         -1.7999181506       -0.7874903604        0.1264542336
 C         -1.2922852367        0.5769818656       -0.2086763857
 C          0.1369570691        0.8164928271        0.2807491290
 C          1.1473976438       -0.0342861519       -0.4079762575
 C          2.2757276706       -0.4177222377        0.1531863391
 H         -2.7505548930       -0.9295752754       -0.2302351044
 H         -1.8162015072       -0.9278213486        1.1416528331
 H         -1.1971866717       -1.5097777727       -0.2807699376
 H         -1.9713876455        1.3218980211        0.2247837523
 H         -1.3400463510        0.7236750811       -1.2940522513
 H          0.1819362671        0.6289359510        1.3588638533
 H          0.4150829817        1.8694777613        0.1501713289
 H          0.9561342680       -0.2965691355       -1.4368363304
 H          2.5138148019       -0.1452894065        1.1623939336
 H          2.9967032530       -1.0105869094       -0.3758813175
  15
  -16.219194300000002        6.0343635680224265E-002 !md3
 N         -1.8008461446       -0.7928313533       -0.0698373564
 C         -1.2907359216        0.5877831892        0.1860970509
 C          0.1347016857        0.7995009934       -0.3266868733
 C          1.1504354027       -0.0116907142        0.4009216305
 C          2.2747180952       -0.4260312164       -0.1462135278
 H         -1.8262034912       -0.9879156454       -1.0757177422
 H         -2.7481925701       -0.9155169639        0.3026715755
 H         -1.1940453923       -1.4920080877        0.3703347830
 H         -1.3300235522        0.7938699191        1.2621045980
 H         -1.9732511139        1.3080324589       -0.2823266704
 H          0.4135673550        1.8583092101       -0.2570069410
 H          0.1716980048        0.5522195416       -1.3927611948
 H          0.9667996892       -0.2160437742        1.4442092838
 H          2.5054098348       -0.2102264296       -1.1707193205
 H          2.9996765334       -0.9886082052        0.4098041813
  15
  -16.219067650000000        5.2774868840597969E-002 !mtd12
 N         -1.8126647395       -0.7813108061        0.1254420902
 C         -1.2906079954        0.5772205746       -0.2120236518
 C          0.1376240355        0.8058731728        0.2857066414
 C          1.1468065330       -0.0467525438       -0.4023656964
 C          2.2893259029       -0.4033143648        0.1476397417
 H         -1.8425071412       -0.9146152196        1.1412679944
 H         -1.2102981161       -1.5108283098       -0.2691627000
 H         -2.7599525720       -0.9190587869       -0.2420145244
 H         -1.9660469035        1.3296497123        0.2141358978
 H         -1.3298264826        0.7206971511       -1.2981651970
 H          0.1766327547        0.6121609999        1.3629817618
 H          0.4223721842        1.8578424126        0.1616439285
 H          0.9420140364       -0.3334237641       -1.4221046012
 H          2.5409580909       -0.1050556851        1.1462330582
 H          3.0091473148       -0.9983063942       -0.3806105086
  15
  -16.219058879999999        5.2287364206711075E-002 !gc
 N         -1.8133212578       -0.7809851140        0.1251888003
 C         -1.2905896892        0.5773774549       -0.2119784809
 C          0.1377043023        0.8053118143        0.2858726583
 C          1.1465842279       -0.0479342159       -0.4018464638
 C          2.2902323226       -0.4022502849        0.1472712038
 H         -1.2107866986       -1.5107879424       -0.2684968890
 H         -2.7602270077       -0.9184958631       -0.2433001247
 H         -1.8444347720       -0.9141408659        1.1410172194
 H         -1.9656592633        1.3300302135        0.2143667840
 H         -1.3297627356        0.7211819566       -1.2980803035
 H          0.1764812452        0.6119265830        1.3632177927
 H          0.4229959898        1.8570874593        0.1614206069
 H          0.9407910757       -0.3368317925       -1.4207556473
 H          2.5429835527       -0.1017067596        1.1449011845
 H          3.0099081822       -0.9975055496       -0.3808780689
  15
  -16.219052789999999        5.1951486600910271E-002 !mtd8
 N         -1.8140231645       -0.7806549423        0.1250844739
 C         -1.2905167657        0.5773932156       -0.2120616567
 C          0.1377753606        0.8047534052        0.2860848202
 C          1.1465529660       -0.0486732949       -0.4015571135
 C          2.2909508984       -0.4014253669        0.1470024204
 H         -2.7610397364       -0.9176812965       -0.2431885381
 H         -1.8447967846       -0.9138164505        1.1409232402
 H         -1.2119355552       -1.5107754359       -0.2688206864
 H         -1.9653701392        1.3303944689        0.2140162725
 H         -1.3293318291        0.7210409089       -1.2981968425
 H          0.1763055718        0.6111800682        1.3634011627
 H          0.4234582550        1.8564479779        0.1618053105
 H          0.9398895046       -0.3390127038       -1.4198763286
 H          2.5443499091       -0.0993030377        1.1439871452
 H          3.0106082789       -0.9968616959       -0.3809705659
  15
  -16.219050780000000        5.1841104693945150E-002 !gc
 N         -1.8140755604       -0.7854914353       -0.0755151817
 C         -1.2893980918        0.5873507940        0.1927842310
 C          0.1358072366        0.7909291033       -0.3240406634
 C          1.1484477809       -0.0314271018        0.3950442617
 C          2.2901693341       -0.4076572387       -0.1433755316
 H         -2.7591513537       -0.9042823451        0.3038516179
 H         -1.2099659561       -1.4957396241        0.3504226959
 H         -1.8501186350       -0.9677885033       -1.0835240049
 H         -1.3220293595        0.7828815791        1.2709830132
 H         -1.9670570971        1.3188500973       -0.2651513080
 H          0.4227905880        1.8471807282       -0.2491694551
 H          0.1673962848        0.5489504339       -1.3915219013
 H          0.9469192883       -0.2774034469        1.4259946286
 H          2.5386455218       -0.1490529535       -1.1537495403
 H          3.0122926595       -0.9799477336        0.4063561567
  15
  -16.218997800000000        4.9014697337452950E-002 !gc
 N         -1.8202350398       -0.7824549299       -0.0773667445
 C         -1.2884651199        0.5866841162        0.1958795087
 C          0.1360947138        0.7865420405       -0.3243540043
 C          1.1489128870       -0.0369644633        0.3931115905
 C          2.2959714555       -0.4012433427       -0.1421538261
 H         -1.8603367906       -0.9597412866       -1.0860790750
 H         -2.7647326661       -0.8987046037        0.3043504394
 H         -1.2179783191       -1.4974875745        0.3431398421
 H         -1.3170072587        0.7775332305        1.2750281527
 H         -1.9643393526        1.3232281841       -0.2565775320
 H          0.4254204904        1.8422541555       -0.2510997826
 H          0.1648196788        0.5433952908       -1.3916501259
 H          0.9430365855       -0.2936275947        1.4205949784
 H          2.5486477707       -0.1315820405       -1.1485949256
 H          3.0185599931       -0.9740384151        0.4064314733
  15
  -16.218983930000000        4.8300554278921756E-002 !mtd7
 N         -1.8202479644       -0.7775474533        0.1242292083
 C         -1.2897105085        0.5776889921       -0.2133570112
 C          0.1382380250        0.7995386437        0.2883842971
 C          1.1460043326       -0.0557329799       -0.3983303571
 C          2.2977710126       -0.3937105036        0.1440437740
 H         -1.8544481999       -0.9091555185        1.1401423904
 H         -1.2204350223       -1.5110415471       -0.2668796547
 H         -2.7669895276       -0.9107260180       -0.2463311537
 H         -1.9624337863        1.3341917710        0.2098819530
 H         -1.3249575430        0.7201778614       -1.2997599422
 H          0.1738788160        0.6038308179        1.3654217009
 H          0.4274834049        1.8505119955        0.1664495687
 H          0.9319579635       -0.3604632182       -1.4109156113
 H          2.5580891423       -0.0771222709        1.1347494553
 H          3.0166398414       -0.9909644053       -0.3829539959
  15
  -16.218943849999999        4.6294843671234973E-002 !gc
 N         -1.8246219693       -0.7755235408        0.1242386375
 C         -1.2890031690        0.5774150302       -0.2147224647
 C          0.1384190422        0.7959887292        0.2900646545
 C          1.1464048442       -0.0588765809       -0.3968084494
 C          2.3018157181       -0.3895000214        0.1423321143
 H         -1.2252275694       -1.5117528137       -0.2622071385
 H         -2.7701491585       -0.9070294497       -0.2500074915
 H         -1.8636846455       -0.9042280319        1.1403886238
 H         -1.9605147630        1.3367142504        0.2054129335
 H         -1.3210967545        0.7182194163       -1.3014319664
 H          0.1719717338        0.5977772502        1.3667088720
 H          0.4292871522        1.8468291889        0.1709342232
 H          0.9294286123       -0.3693773810       -1.4070272360
 H          2.5650621850       -0.0669811436        1.1303515889
 H          3.0209340331       -0.9862032385       -0.3849401533
  15
  -16.218899029999999        4.4150413566192183E-002 !mtd9
 N         -1.8268074112       -0.7742567470        0.1227888006
 C         -1.2889869795        0.5783455684       -0.2142123356
 C          0.1388377543        0.7941316826        0.2906081569
 C          1.1449402128       -0.0646514898       -0.3940635172
 C          2.3054248668       -0.3847077256        0.1405177308
 H         -1.8662408274       -0.9042274931        1.1387349040
 H         -1.2285573215       -1.5110582771       -0.2645501300
 H         -2.7724414032       -0.9039454303       -0.2518823521
 H         -1.9592778681        1.3381221833        0.2070041385
 H         -1.3209191460        0.7210125127       -1.3006720055
 H          0.1717468812        0.5979449748        1.3676500272
 H          0.4323178868        1.8439813558        0.1692757752
 H          0.9215072629       -0.3882172460       -1.3987694183
 H          2.5746673796       -0.0492499141        1.1226073736
 H          3.0228403141       -0.9852484150       -0.3847129891
  15
  -16.218878879999998        4.3218976440124499E-002 !mtd1
 N         -1.8278185613       -0.7736100462        0.1222603951
 C         -1.2889236776        0.5787456894       -0.2141845568
 C          0.1389685765        0.7930938874        0.2909701097
 C          1.1443692724       -0.0670860274       -0.3929440974
 C          2.3069901137       -0.3825586312        0.1396991856
 H         -2.7737257032       -0.9022780752       -0.2519863349
 H         -1.8668731002       -0.9041115898        1.1382053843
 H         -1.2304245682       -1.5107865114       -0.2657578809
 H         -1.9586935217        1.3389036621        0.2071783963
 H         -1.3204867670        0.7220705475       -1.3005530174
 H          0.1713839505        0.5972692680        1.3680904758
 H          0.4336231565        1.8425679127        0.1692446885
 H          0.9184713600       -0.3958620925       -1.3954068578
 H          2.5783253256       -0.0423330396        1.1195697080
 H          3.0239325349       -0.9843123198       -0.3847858878
  15
  -16.218607280000001        3.2423191354747756E-002 !mtd2
 N         -2.3448170062       -0.2057497727        0.2850928669
 C         -1.0572366983       -0.0930176532       -0.4652291715
 C          0.1182278568        0.3063587703        0.4238380500
 C          1.4115509296        0.3888037719       -0.3162873314
 C          2.4754171419       -0.3254326861       -0.0106451664
 H         -3.1131601479       -0.4797737692       -0.3349222634
 H         -2.5891943311        0.6895243628        0.7187279950
 H         -2.2691970200       -0.9076648552        1.0271264077
 H         -1.1729204021        0.6357967246       -1.2759737599
 H         -0.8380213130       -1.0498844087       -0.9537250606
 H          0.2114568571       -0.4123688862        1.2446864179
 H         -0.0886464124        1.2685761208        0.9053829721
 H          1.4610051580        1.0766716473       -1.1461665186
 H          2.4638624798       -1.0185456382        0.8070668603
 H          3.3901282083       -0.2405840291       -0.5648543738
  15
  -16.217705909999999        1.2491505646522490E-002 !mtd7
 N         -1.7829059620       -0.7312329456       -0.1516848498
 C         -1.0665830709        0.3816628484        0.5401220727
 C          0.0943217395        0.9470144578       -0.2793929355
 C          1.1814028694       -0.0438021570       -0.5223372812
 C          2.0415307543       -0.4089160056        0.4053986047
 H         -2.1602104621       -0.4147994605       -1.0505051727
 H         -2.5620043909       -1.0818077053        0.4152336142
 H         -1.1467435242       -1.5144606570       -0.3331507922
 H         -0.6947900746        0.0205077298        1.5059344803
 H         -1.7870915358        1.1755727237        0.7736650838
 H          0.5227407330        1.8230562478        0.2228328428
 H         -0.2860049458        1.3215571764       -1.2364092904
 H          1.2509274241       -0.4896908336       -1.5032112197
 H          2.0057990004        0.0111769308        1.3910486882
 H          2.8133297897       -1.1279102219        0.2089828018
  15
  -16.217701089999998        1.2427954940686887E-002 !mtd8
 N         -1.7825521158       -0.7380443653        0.1552903381
 C         -1.0798963224        0.4116311423       -0.4885127421
 C          0.1026944883        0.9260335788        0.3336366905
 C          1.1945340852       -0.0775252579        0.4862564287
 C          2.0339339113       -0.3783104603       -0.4826079170
 H         -1.1436530772       -1.5304568830        0.2767024037
 H         -2.5753114326       -1.0553310029       -0.4123180067
 H         -2.1381253442       -0.4733960156        1.0794321578
 H         -1.8031898797        1.2191055260       -0.6580584845
 H         -0.7331248144        0.1058612771       -1.4824066162
 H         -0.2520732121        1.2409759915        1.3217077573
 H          0.5189337933        1.8312283776       -0.1246273590
 H          1.2850203272       -0.5885824824        1.4329711659
 H          1.9761134339        0.1067898753       -1.4368113037
 H          2.8093677843       -1.1082852898       -0.3524913036
  15
  -16.217691930000001        1.2308071924350204E-002 !mtd5
 N         -1.7815088139       -0.7320749422       -0.1510593971
 C         -1.0653375850        0.3810369920        0.5405507267
 C          0.0938422268        0.9480776882       -0.2802277695
 C          1.1825945649       -0.0407878017       -0.5236900394
 C          2.0379374337       -0.4112008168        0.4063064887
 H         -1.1446666751       -1.5142234551       -0.3344464918
 H         -2.1608760820       -0.4152402852       -1.0489030827
 H         -2.5591698993       -1.0841672781        0.4168717257
 H         -0.6918761605        0.0195625720        1.5055915830
 H         -1.7862737245        1.1741017175        0.7756679518
 H          0.5211867362        1.8250684860        0.2212542203
 H         -0.2881023760        1.3215159913       -1.2370268456
 H          1.2584684091       -0.4795285927       -1.5073051649
 H          1.9959219633        0.0022203994        1.3945362905
 H          2.8114156051       -1.1283124653        0.2096308789
  15
  -16.217668979999999        1.2012763740212970E-002 !md2
 N         -1.7864361472       -0.7293480296       -0.1517543283
 C         -1.0638240757        0.3782714751        0.5420315074
 C          0.0938167419        0.9457109089       -0.2807377846
 C          1.1840571803       -0.0416962036       -0.5237568383
 C          2.0410244924       -0.4085661264        0.4062032143
 H         -2.5630078680       -1.0818002402        0.4175123897
 H         -1.1530382901       -1.5127801063       -0.3416818409
 H         -2.1683397590       -0.4068083268       -1.0464868268
 H         -0.6872993944        0.0114935325        1.5038675093
 H         -1.7815982671        1.1723233189        0.7836040291
 H          0.5206011920        1.8237527403        0.2193574708
 H         -0.2898154787        1.3174332976       -1.2375463272
 H          1.2600450386       -0.4819343021       -1.5066997566
 H          1.9995624837        0.0069244360        1.3935694992
 H          2.8154424784       -1.1249140256        0.2104905826
  15
  -16.217651190000002        1.1788735339906164E-002 !md8
 N         -1.7896403033       -0.7350278656        0.1558577299
 C         -1.0780751924        0.4083775747       -0.4896357209
 C          0.1028116592        0.9225407727        0.3352977950
 C          1.1977742573       -0.0779286438        0.4860043803
 C          2.0375791618       -0.3751830781       -0.4836520502
 H         -2.1449263386       -0.4656048097        1.0787806866
 H         -1.1575713564       -1.5326649564        0.2797783831
 H         -2.5840800684       -1.0470329272       -0.4123472147
 H         -1.7972462835        1.2181156541       -0.6661153413
 H         -0.7282822865        0.0967357705       -1.4806116816
 H         -0.2538229883        1.2333717225        1.3239765103
 H          0.5171213610        1.8303404292       -0.1195992551
 H          1.2922485442       -0.5876940401        1.4330671640
 H          1.9780552915        0.1107065090       -1.4374298701
 H          2.8158145892       -1.1023499215       -0.3542503225
  15
  -16.217642130000002        1.1676253897999665E-002 !mtd6
 N         -1.7856328061       -0.7370280729        0.1564670742
 C         -1.0781027001        0.4084459992       -0.4897513096
 C          0.1024999289        0.9255210515        0.3337575378
 C          1.1979640679       -0.0739693649        0.4873306914
 C          2.0328443515       -0.3795003549       -0.4839866987
 H         -2.5804943670       -1.0506832700       -0.4101588842
 H         -2.1395524022       -0.4689883227        1.0803505948
 H         -1.1512547066       -1.5331049713        0.2786119553
 H         -1.7995990211        1.2163397337       -0.6651947573
 H         -0.7288593868        0.0978235104       -1.4812408115
 H         -0.2544171444        1.2388281179        1.3215601945
 H          0.5163587873        1.8322830586       -0.1236248415
 H          1.2975034501       -0.5754330278        1.4383199929
 H          1.9684918492        0.0982514267       -1.4415465086
 H          2.8116463219       -1.1056608648       -0.3523809048
  15
  -16.217497980000001        1.0024362815729224E-002 !gc
 N         -2.3037165519       -0.2263308667        0.2587370070
 C         -0.9622189122       -0.2463680218       -0.3995861912
 C          0.0977744144        0.5307092247        0.3773901319
 C          1.4414164596        0.4880853790       -0.2697672575
 C          2.3239395996       -0.4618234027       -0.0389822862
 H         -2.6425234237        0.7350955065        0.3595026826
 H         -2.2537617122       -0.6453267819        1.1920806328
 H         -2.9926449142       -0.7509362977       -0.2887540921
 H         -1.0491447251        0.1627263893       -1.4131096662
 H         -0.6372699643       -1.2856277035       -0.5267414632
 H          0.1740456812        0.1343490260        1.3955733190
 H         -0.2235274059        1.5711956598        0.4997373904
 H          1.6721813066        1.2524770070       -0.9963226626
 H          2.1210190134       -1.2501310118        0.6586926499
 H          3.2764300582       -0.4799347364       -0.5324734532
  15
  -16.217481990000000        9.8561721792834820E-003 !gc
 N         -2.3033535399       -0.2263450765        0.2582214044
 C         -0.9609664753       -0.2482912245       -0.3983109254
 C          0.0975394740        0.5330037416        0.3764448004
 C          1.4418449551        0.4890770147       -0.2692441981
 C          2.3220861426       -0.4631202791       -0.0391930361
 H         -2.2540378351       -0.6392159536        1.1942830304
 H         -2.9908408137       -0.7552543699       -0.2869653185
 H         -2.6437500549        0.7351493123        0.3526167476
 H         -1.0468479223        0.1562188257       -1.4137539113
 H         -0.6350904412       -1.2878625575       -0.5203219109
 H          0.1733735264        0.1408450687        1.3962823123
 H         -0.2249976930        1.5736129266        0.4943007692
 H          1.6750971703        1.2544705824       -0.9939610882
 H          2.1165650669       -1.2522803103        0.6567671832
 H          3.2751438642       -0.4823863831       -0.5315507170
  15
  -16.217469810000001        9.7299529727043824E-003 !gc
 N         -2.3030675623       -0.2264135770        0.2579022690
 C         -0.9601453634       -0.2494800905       -0.3975090075
 C          0.0973819711        0.5345392703        0.3758382665
 C          1.4421103286        0.4897364622       -0.2688895121
 C          2.3208174226       -0.4639889799       -0.0393411322
 H         -2.9896309987       -0.7577952478       -0.2859759349
 H         -2.6443861083        0.7350871198        0.3487059196
 H         -2.2541050401       -0.6360088761        1.1954666859
 H         -1.0454454485        0.1521343582       -1.4141498458
 H         -0.6336286044       -1.2892114467       -0.5163665751
 H          0.1729417777        0.1451229791        1.3967526488
 H         -0.2259421397        1.5752294504        0.4907451838
 H          1.6770914432        1.2557747090       -0.9923791565
 H          2.1134981974       -1.2537585092        0.6553968315
 H          3.2742961855       -0.4839629373       -0.5308539305
  15
  -16.217441839999999        9.4461887496644480E-003 !mtd3
 N         -2.3077263642       -0.3015883392       -0.0394636502
 C         -0.9421948822       -0.0231702008        0.5003253441
 C          0.0796824795        0.2895608713       -0.5899926718
 C          1.4466050471        0.5472678696       -0.0505250331
 C          2.3219439154       -0.4087796585        0.1821008538
 H         -2.6626152753        0.5070077405       -0.5585298952
 H         -2.9690532854       -0.5109862594        0.7145212508
 H         -2.2870759242       -1.1032869750       -0.6766484717
 H         -0.6021841956       -0.8845590538        1.0868710071
 H         -0.9945734802        0.8140318023        1.2063180888
 H         -0.2586760036        1.1522605285       -1.1752239813
 H          0.1235554734       -0.5399478748       -1.3035775321
 H          1.7032881607        1.5653599951        0.2006748729
 H          2.0941520230       -1.4338870956       -0.0339514884
 H          3.2926365643       -0.1997291482        0.5885516061
  15
  -16.217433280000002        9.3610101380755539E-003 !mtd6
 N         -2.3078622419       -0.3054636754       -0.0381938666
 C         -0.9445182688       -0.0131226152        0.5002575748
 C          0.0803715865        0.2822316712       -0.5921074307
 C          1.4462023861        0.5464740453       -0.0530192550
 C          2.3240901532       -0.4059386148        0.1849365208
 H         -2.2821420736       -1.1162181156       -0.6636160563
 H         -2.6660957015        0.4937056576       -0.5696792355
 H         -2.9694145520       -0.5075790358        0.7177581280
 H         -0.6039817562       -0.8629476211        1.1031944244
 H         -1.0009272376        0.8365021538        1.1909575227
 H         -0.2552854874        1.1363048490       -1.1913883083
 H          0.1253307240       -0.5581866613       -1.2926737519
 H          1.6995245560        1.5664959321        0.1936189006
 H          2.0993485473       -1.4326764192       -0.0263830863
 H          3.2936828430       -0.1920728948        0.5915107681
  15
  -16.217432660000000        9.3548705732693239E-003 !mtd11
 N         -2.3074198257       -0.3067468335       -0.0380174218
 C         -0.9446302123       -0.0116085641        0.5002986819
 C          0.0803228625        0.2825470836       -0.5923257321
 C          1.4462864561        0.5464877130       -0.0534526283
 C          2.3236349742       -0.4062224282        0.1853113113
 H         -2.9697298578       -0.5053070573        0.7181829004
 H         -2.2809358654       -1.1206067819       -0.6594501337
 H         -2.6652548460        0.4897423858       -0.5737835839
 H         -0.6033955165       -0.8597283874        1.1052375125
 H         -1.0021126789        0.8395180783        1.1890426030
 H         -0.2549637886        1.1363892105       -1.1921575351
 H          0.1248639771       -0.5583723960       -1.2923068640
 H          1.7002233966        1.5665354271        0.1924160922
 H          2.0981678391       -1.4329607402       -0.0252141352
 H          3.2933660856       -0.1926321231        0.5916901349
  15
  -16.217316749999998        8.2750234948798934E-003 !gc
 N         -2.3057921948       -0.2991559447       -0.0420010550
 C         -0.9356776070       -0.0453261856        0.4986734719
 C          0.0781176842        0.3178326993       -0.5835565948
 C          1.4490390759        0.5502801520       -0.0427820121
 C          2.3123085557       -0.4205119031        0.1731289854
 H         -2.9593221707       -0.5459238424        0.7074713630
 H         -2.2906003787       -1.0690978576       -0.7174818726
 H         -2.6667166362        0.5331314670       -0.5178790176
 H         -0.5910629388       -0.9329115343        1.0418597879
 H         -0.9823414094        0.7580456214        1.2433816331
 H         -0.2646359885        1.2064108616       -1.1258916098
 H          0.1172332971       -0.4778961046       -1.3348358887
 H          1.7198359615        1.5610509786        0.2228745986
 H          2.0706039334       -1.4389999706       -0.0583710835
 H          3.2863806379       -0.2303158228        0.5807709582
  15
  -16.217248819999998        7.7010646453933747E-003 !mtd6
 N         -2.3784942087       -0.1979866851        0.2933874509
 C         -1.1355060314        0.2666711060       -0.3941956409
 C          0.1397184913       -0.2176585332        0.2931616618
 C          1.3910223045        0.2389074312       -0.3752940639
 C          2.5919629370       -0.0298275071        0.0932185375
 H         -2.4195634029       -1.2212068855        0.3093329231
 H         -3.2175370973        0.1469408448       -0.1827450881
 H         -2.4015546888        0.1359243509        1.2614718460
 H         -1.1368423185        1.3621124348       -0.4405224192
 H         -1.1482421430       -0.0781167157       -1.4349328181
 H          0.1374397980       -1.3120596583        0.3392188471
 H          0.1449197601        0.1239706548        1.3335927419
 H          1.2959461013        0.8092953248       -1.2864007375
 H          2.7201497591       -0.5972433172        0.9938399558
 H          3.4810072617        0.3061356413       -0.4045744074
  15
  -16.217245259999999        7.6721079743461386E-003 !mtd3
 N         -2.3788129642       -0.1932290757        0.2957195097
 C         -1.1349564825        0.2282275764       -0.4177316407
 C          0.1395519404       -0.1667555077        0.3257090123
 C          1.3908364016        0.2433011700       -0.3723467846
 C          2.5921374248       -0.0531099079        0.0781619219
 H         -3.2170566296        0.0834271594       -0.2243236413
 H         -2.4244297194        0.2364888671        1.2243411715
 H         -2.3990304201       -1.2103372435        0.4150183861
 H         -1.1545430312        1.3143901524       -0.5659287051
 H         -1.1277623283       -0.2117844559       -1.4219780674
 H          0.1523565436       -1.2516923957        0.4757422672
 H          0.1290919303        0.2724306164        1.3289096179
 H          1.2954075768        0.8145393151       -1.2828951894
 H          2.7206535042       -0.6153147619        0.9819728973
 H          3.4810372213        0.2541047828       -0.4380680628
  15
  -16.217230319999999        7.5517700566343632E-003 !gc
 N         -2.3787138020       -0.1956476284        0.2948890801
 C         -1.1355679339        0.2531958583       -0.4030922607
 C          0.1397712967       -0.2023641633        0.3034332636
 C          1.3910223249        0.2428275986       -0.3727640926
 C          2.5922711849       -0.0385418763        0.0874601602
 H         -2.4114294725        0.1776625972        1.2480857379
 H         -2.4107106760       -1.2177959730        0.3529331670
 H         -3.2177385262        0.1219433519       -0.1999163166
 H         -1.1424481368        1.3465776868       -0.4845458692
 H         -1.1425902742       -0.1244094580       -1.4324131126
 H          0.1440385927       -1.2949835282        0.3807386222
 H          0.1385459109        0.1689463853        1.3336486581
 H          1.2955076692        0.8204137814       -1.2792510569
 H          2.7208497225       -0.6109100562        0.9848829676
 H          3.4811847069        0.2912558149       -0.4146629781
