  15
        -16.21921411
 N         -1.7979894009       -0.7884062925        0.1265504700
 C         -1.2925504741        0.5769851341       -0.2081233300
 C          0.1368663748        0.8180721622        0.2799866121
 C          1.1474344680       -0.0325800221       -0.4087311757
 C          2.2737119425       -0.4197793610        0.1539757982
 H         -1.8114971649       -0.9301104742        1.1415500661
 H         -1.1955814576       -1.5095058321       -0.2832461838
 H         -2.7494461738       -0.9309485128       -0.2278784013
 H         -1.9721512530        1.3207333230        0.2265506225
 H         -1.3416802253        0.7242959606       -1.2933551892
 H          0.1827801200        0.6315502323        1.3582390764
 H          0.4140622395        1.8711714067        0.1483289116
 H          0.9580695524       -0.2916009703       -1.4387636819
 H          2.5099479344       -0.1506781133        1.1645090204
 H          2.9948111636       -1.0124883462       -0.3750963701
