  16
        -21.13057983
 N          0.2080506914       -1.4788582888        0.8414465787
 C          1.0939301253       -1.5477169764       -0.3560041302
 C          1.4201420029       -0.1599454874       -0.9059237345
 C          2.1779256826        0.6848580079        0.0622211662
 C          1.8123284314        1.9057381413        0.4014094049
 Cl        -2.6109630229        0.3808374807       -0.0833823730
 H         -0.6658801717       -0.9732652645        0.6138363956
 H          0.6646389371       -0.9638418061        1.6070404617
 H         -0.0468786182       -2.4126745338        1.1943541945
 H          0.6153634363       -2.1606143188       -1.1300882173
 H          2.0222013987       -2.0707207739       -0.0978124823
 H          0.4867361466        0.3473463274       -1.1760056674
 H          1.9878630783       -0.2392386137       -1.8421886080
 H          3.0686554365        0.2570269277        0.4945557990
 H          0.9306202186        2.3557640181       -0.0121513166
 H          2.3752215984        2.4939879490        1.1011276337
  16
        -21.13031317
 N          0.1569348078       -1.3814276548       -1.0325502831
 C          1.1713932096       -1.6476421869        0.0277001573
 C          1.5180073704       -0.3909144994        0.8250581124
 C          2.0514662681        0.7114091757       -0.0264299934
 C          1.2834354920        1.6516653036       -0.5404417269
 Cl        -2.4001414343        0.5572242445        0.3801482892
 H         -0.6730774443       -0.9130814547       -0.6293285720
 H         -0.1569386839       -2.2433705422       -1.5019407782
 H          0.5363257302       -0.7503414854       -1.7522270161
 H          2.0793657293       -2.0567665593       -0.4308896474
 H          0.8019444378       -2.4317482589        0.7003832382
 H          2.2369565567       -0.6286586414        1.6197728400
 H          0.6224502256       -0.0347776682        1.3482489767
 H          3.1030441131        0.6940173379       -0.2673650958
 H          0.2285490243        1.6680274795       -0.3442202463
 H          1.6749769899        2.4266217899       -1.1718002930
  16
        -21.13022016
 N          0.1560405046       -1.3952911607       -1.0291337354
 C          1.1759062273       -1.6550901800        0.0276240412
 C          1.5180000125       -0.3959691289        0.8231939586
 C          2.0375259541        0.7108052876       -0.0311326276
 C          1.2584177587        1.6440854065       -0.5411507248
 Cl        -2.3864926449        0.5720427260        0.3812680668
 H         -0.6725732491       -0.9259932720       -0.6242545992
 H         -0.1586866442       -2.2598011808       -1.4932096730
 H          0.5311158773       -0.7669111464       -1.7534214809
 H          2.0845435236       -2.0591707494       -0.4341267634
 H          0.8136053531       -2.4409909501        0.7021002424
 H          2.2435989309       -0.6284510586        1.6134078129
 H          0.6230164360       -0.0468409096        1.3520812347
 H          3.0879736266        0.7028251649       -0.2774035456
 H          0.2044501414        1.6504859591       -0.3393794029
 H          1.6394471468        2.4227052386       -1.1744166351
  16
        -21.12967994
 N         -0.1646576752        0.3699108577       -0.3803239051
 C          0.8316946656       -0.7360226387       -0.2945563503
 C          2.2529757307       -0.2535085211       -0.5800338915
 C          2.7389040140        0.7399203186        0.4215676811
 C          3.1480542774        1.9526086278        0.1034518992
 Cl        -3.3930865982       -0.8279916038        0.3344458775
 H         -0.1683715097        0.7910667267       -1.3229943671
 H          0.0601225135        1.1188298401        0.2895790884
 H         -1.1237047159        0.0427531370       -0.1766788477
 H          0.5516041346       -1.5349730543       -0.9924506343
 H          0.7913988149       -1.1892981076        0.7029286636
 H          2.2881166637        0.1922980686       -1.5806475045
 H          2.9478179208       -1.1027113615       -0.6177880240
 H          2.7369397519        0.4345118299        1.4560611430
 H          3.1551994560        2.2865548179       -0.9160473392
 H          3.4877126253        2.6506689700        0.8449773624
  16
        -21.12950244
 N          0.1720578576       -1.5341660535        0.7975745064
 C          1.0879044991       -1.5006661338       -0.3790081216
 C          1.3989061681       -0.0716539233       -0.8232177044
 C          2.1420084508        0.7140106300        0.2023976843
 C          2.1103495590        2.0309845677        0.2609588321
 Cl        -2.6881851688        0.2932148734       -0.0810953996
 H         -0.7090100228       -1.0357101824        0.5820278235
 H          0.5959288399       -1.0622671808        1.6084099697
 H         -0.0677755979       -2.4956775249        1.0795051445
 H          0.6391082907       -2.0656908948       -1.2056009330
 H          2.0201229374       -2.0243462916       -0.1369377235
 H          0.4600989305        0.4430198756       -1.0584456847
 H          1.9734452050       -0.0754587205       -1.7583932517
 H          2.7567929292        0.1649013120        0.8980584440
 H          1.5237113095        2.6016348853       -0.4328188186
 H          2.6640222756        2.5812998904        0.9979103179
  16
        -21.12941000
 N          0.1681559090       -1.5348452197        0.7918953542
 C          1.0905198116       -1.4962423811       -0.3794596693
 C          1.4016292222       -0.0655447109       -0.8181892750
 C          2.1396554413        0.7185259258        0.2122021196
 C          2.1358063114        2.0366085276        0.2504829653
 Cl        -2.6976452365        0.2855070536       -0.0796491348
 H         -0.7128189526       -1.0374680370        0.5733487783
 H          0.5866240324       -1.0647492912        1.6065795581
 H         -0.0713791468       -2.4976715902        1.0695852354
 H          0.6473074945       -2.0597602554       -1.2100854232
 H          2.0223120147       -2.0189769314       -0.1337313387
 H          0.4632790512        0.4488212431       -1.0558821653
 H          1.9801751610       -0.0662384672       -1.7508890482
 H          2.7265092225        0.1668545833        0.9296308873
 H          1.5773533409        2.6091167467       -0.4647055647
 H          2.6851263670        2.5859910485        0.9913738385
  16
        -21.12938825
 N         -0.0638617331       -1.9707748318        0.0993221645
 C          1.1163388796       -1.1785869956       -0.3539435133
 C          1.3501659611        0.0568619897        0.5106352752
 C          2.5004182386        0.8870838857        0.0449779997
 C          2.3708470731        2.1221918786       -0.3991360300
 Cl        -2.8005233662        0.2249985915        0.0315266630
 H         -0.2348648118       -2.7946346380       -0.4995501346
 H         -0.9142958823       -1.3864295385        0.0849764115
 H          0.0637641187       -2.3015390841        1.0655222328
 H          0.9793587403       -0.8735354365       -1.3982363130
 H          2.0136005900       -1.8085748732       -0.3509954709
 H          1.5070745922       -0.2444438498        1.5532276295
 H          0.4387803129        0.6661237776        0.5271707826
 H          3.4759662022        0.4270418661        0.0580897981
 H          1.4110848017        2.6001347498       -0.4376077320
 H          3.2125918946        2.6955222855       -0.7386456192
  16
        -21.12932976
 N          0.1674808350       -1.5346463631        0.7936691239
 C          1.0870680744       -1.4900499026       -0.3796570743
 C          1.3957073063       -0.0571983800       -0.8131909911
 C          2.1412840635        0.7215616428        0.2157381052
 C          2.1550607116        2.0397448509        0.2474786310
 Cl        -2.7019099212        0.2773002625       -0.0825647221
 H          0.5874195052       -1.0647742378        1.6113096732
 H         -0.0692166429       -2.4989376736        1.0687593357
 H         -0.7127133445       -1.0402854089        0.5787831817
 H          0.6423547269       -2.0504905307       -1.2115683904
 H          2.0199750723       -2.0129071616       -0.1384970471
 H          0.4560116308        0.4588159441       -1.0418325071
 H          1.9679030715       -0.0534853199       -1.7497848183
 H          2.7186606571        0.1656193770        0.9375646800
 H          1.6064667666        2.6161198897       -0.4722325969
 H          2.7098638624        2.5853472789        0.9870824464
  16
        -21.12927273
 N          0.1283473658       -1.4921639397       -0.8701814312
 C          1.1026713691       -1.4980736941        0.2589900214
 C          1.4310622805       -0.0856523767        0.7423648714
 C          2.1333560763        0.7392100731       -0.2810136416
 C          2.1770105350        2.0562554518       -0.2335125281
 Cl        -2.7090995961        0.2585288534        0.2134622962
 H         -0.7441916592       -1.0106200843       -0.5907821070
 H         -0.1192296991       -2.4437938581       -1.1778423875
 H          0.5070638658       -0.9851811873       -1.6821968051
 H          2.0233739473       -2.0071428310       -0.0493541837
 H          0.6980130353       -2.0967834031        1.0846305069
 H          2.0425971685       -0.1235824722        1.6526075827
 H          0.5024127209        0.4193004897        1.0337314985
 H          2.6530379837        0.2174011301       -1.0691251340
 H          1.6860837019        2.5976256459        0.5520185568
 H          2.6999377527        2.6353429285       -0.9708800373
  16
        -21.12924663
 N         -0.1168245223        0.3680202757       -0.3854958572
 C          0.8473587632       -0.7661310078       -0.3033854150
 C          2.2810075541       -0.3295674594       -0.6002548147
 C          2.8019066690        0.6564845137        0.3909199746
 C          2.9330874830        1.9426850019        0.1315844245
 Cl        -3.3704694403       -0.7504792643        0.3481441826
 H         -1.0868400680        0.0674548568       -0.1778316085
 H         -0.1120296078        0.7883664279       -1.3255820160
 H          0.1313609032        1.1097226418        0.2843241227
 H          0.5382075287       -1.5588967416       -0.9960544660
 H          0.8008068064       -1.2141145407        0.6962358232
 H          2.3269001005        0.1076831265       -1.6042392702
 H          2.9474694482       -1.2014637330       -0.6364708352
 H          3.0345840123        0.2885827114        1.3780284636
 H          2.6855835511        2.3421979767       -0.8328329739
 H          3.2907154429        2.6376673917        0.8675545975
  16
        -21.12903358
 N         -0.1031263452        0.3646716935       -0.3827446643
 C          0.8541138344       -0.7754332719       -0.3030917532
 C          2.2892032355       -0.3496694872       -0.6086933854
 C          2.8219975576        0.6365000206        0.3758990042
 C          2.8700728179        1.9336888981        0.1443756738
 Cl        -3.3652405538       -0.7263069554        0.3504002432
 H         -1.0747026384        0.0704524549       -0.1731584688
 H         -0.0976150879        0.7853334255       -1.3227484361
 H          0.1511336313        1.1045333812        0.2868800978
 H          0.5359337235       -1.5677845175       -0.9921351058
 H          0.8098955398       -1.2206023673        0.6978942049
 H          2.3335784330        0.0840974931       -1.6142720642
 H          2.9487964851       -1.2267702522       -0.6456615928
 H          3.1302884623        0.2586912259        1.3383459189
 H          2.5430284611        2.3422732691       -0.7921632336
 H          3.2354825422        2.6290115441        0.8761932124
  16
        -21.12870866
 N         -0.0058483482       -1.9453125308        0.3769604296
 C          1.1331880729       -1.6393637204       -0.5371490006
 C          1.9508153948       -0.4294063609       -0.0824044269
 C          1.2052078295        0.8598976165       -0.1410143489
 C          1.7996014099        2.0327262339       -0.0426610267
 Cl        -2.3750278592        0.6341739969        0.1323744668
 H         -0.6915908933       -1.1708008525        0.3871284619
 H          0.3229974599       -2.0790364657        1.3431003704
 H         -0.5096059671       -2.7979898773        0.0934697578
 H          0.7548863766       -1.4663905562       -1.5515701117
 H          1.7803018453       -2.5223331389       -0.6125636014
 H          2.8587829667       -0.3403291174       -0.6921033544
 H          2.3031980891       -0.5915261408        0.9431064239
 H          0.1316096250        0.8181087389       -0.2334500464
 H          2.8639639591        2.1052832327        0.0715467894
 H          1.2491030579        2.9539641638       -0.0715761542
  16
        -21.12859327
 N          0.0000155669       -1.9415038350        0.3916624294
 C          1.1280940672       -1.6413001700       -0.5378949313
 C          1.9520552949       -0.4298015622       -0.0990218449
 C          1.2038425699        0.8584725379       -0.1441733482
 C          1.7960248533        2.0309166589       -0.0295774912
 Cl        -2.3744421435        0.6346381539        0.1282680139
 H         -0.5037885605       -2.8026298715        0.1237697883
 H         -0.6872018383       -1.1721160335        0.3988149989
 H          0.3393460938       -2.0612798679        1.3559602588
 H          0.7374492217       -1.4733462532       -1.5484735382
 H          1.7737445500       -2.5250423203       -0.6166247472
 H          2.8486814587       -0.3395976798       -0.7251130584
 H          2.3231657884       -0.5909581074        0.9200075019
 H          0.1307846133        0.8158843808       -0.2424103460
 H          2.8598253921        2.1034266583        0.0897764507
 H          1.2443665961        2.9516860402       -0.0498389863
  16
        -21.12857016
 N         -0.2613475695        0.3498028007       -0.4549065299
 C          0.8049404545       -0.6551464030       -0.1760531827
 C          2.2014601542       -0.1189539675       -0.4899908094
 C          2.6080996990        1.0143537203        0.3883478763
 C          3.5721133076        1.8568681969        0.0726720126
 Cl        -3.4365203594       -0.9656290088        0.3116784511
 H         -1.2056218888       -0.0164785200       -0.2350533856
 H         -0.2551511506        0.6267867695       -1.4465088680
 H         -0.1194244622        1.2036471995        0.1026812008
 H          0.6068438598       -1.5649104072       -0.7565806578
 H          0.7563914605       -0.9623698614        0.8752495767
 H          2.2351011572        0.2075446249       -1.5357163339
 H          2.9475389067       -0.9198264345       -0.4084431857
 H          2.1048083903        1.1131562855        1.3372581606
 H          4.1031371231        1.7671277747       -0.8552859645
 H          3.8627464514        2.6591587291        0.7241135843
  16
        -21.12851443
 N          0.1986101799       -1.1686459984        0.9458141404
 C          1.1515709296       -1.1595437555       -0.2007342191
 C          1.2545900220        0.2190026797       -0.8520578776
 C          1.7778565122        1.2625015500        0.0767043702
 C          3.0444937592        1.3252140106        0.4365405422
 Cl        -2.9044845719       -0.0531855163       -0.2361993958
 H         -0.7419712671       -0.8668334156        0.6364902950
 H          0.5019626566       -0.5135340555        1.6797703922
 H          0.1082609064       -2.1023771692        1.3719913195
 H          0.8412515569       -1.9078539284       -0.9407266797
 H          2.1417359583       -1.4796870195        0.1440537331
 H          0.2684864075        0.5160532708       -1.2293246459
 H          1.9002698757        0.1741858716       -1.7383888120
 H          1.0748179400        1.9656177388        0.4967364584
 H          3.7633026678        0.6269611293        0.0533101950
 H          3.4062647057        2.0697051795        1.1202374509
  16
        -21.12846407
 N         -0.2653704074        0.3407996997       -0.4808230605
 C          0.8003969849       -0.6507200710       -0.1559895087
 C          2.1993220556       -0.1207426297       -0.4697929194
 C          2.5928915910        1.0411452853        0.3764819105
 C          3.5911659806        1.8459287581        0.0691112932
 Cl        -3.4339437550       -0.9679287929        0.3138200724
 H         -0.1317223075        1.2161708167        0.0500084702
 H         -1.2081312199       -0.0200840038       -0.2591068420
 H         -0.2493859114        0.5835296944       -1.4812192295
 H          0.6122266276       -1.5795933010       -0.7089236770
 H          0.7394470267       -0.9234462993        0.9041672293
 H          2.2454191687        0.1721781312       -1.5249625218
 H          2.9460864982       -0.9165987633       -0.3531146339
 H          2.0478522874        1.1956125334        1.2944190564
 H          4.1623454563        1.7011984286       -0.8275206609
 H          3.8713130570        2.6705391656        0.6968412679
  16
        -21.12839534
 N         -0.0959709788       -1.1103444745        0.3504079871
 C          0.6422677011        0.0872695431       -0.1465508621
 C          2.1530778732       -0.0501047091        0.0172762167
 C          2.9036443570        1.1483207576       -0.4623993917
 C          3.6363505891        1.9103306907        0.3262748238
 Cl        -3.5643592727       -0.6583075240       -0.0766136554
 H          0.1914986362       -1.9596213052       -0.1609498362
 H         -1.1177018093       -1.0058456677        0.2376980609
 H          0.0944267178       -1.2718060033        1.3490156151
 H          0.2957892318        0.9833110605        0.3819970829
 H          0.3998976283        0.2620290708       -1.2014818778
 H          2.5033399251       -0.9438503409       -0.5127689685
 H          2.3895071584       -0.2360154742        1.0715221353
 H          2.8114947667        1.3997572008       -1.5072941566
 H          3.7355330205        1.6931285400        1.3722138220
 H          4.1587516946        2.7729194984       -0.0419229832
  16
        -21.12825870
 N          0.0251922301       -1.6600943352        0.5970243039
 C          1.1100391424       -0.8902104342       -0.0785489970
 C          1.0880618255        0.5893109097        0.2937762860
 C          2.1741643028        1.3725553646       -0.3654508358
 C          3.3987771934        1.4422208984        0.1181241240
 Cl        -3.0241969091       -0.1575411820       -0.2842844285
 H         -0.9009181731       -1.2673716789        0.3542331430
 H          0.1201494394       -1.6087157447        1.6205286872
 H          0.0274227816       -2.6541330537        0.3275707265
 H          1.0200348464       -0.9959226474       -1.1662157100
 H          2.0860241526       -1.3208435438        0.1744524272
 H          1.1723003699        0.6952412435        1.3814659421
 H          0.1086032294        1.0158292527        0.0441051058
 H          1.9486480937        1.8519896415       -1.3056329398
 H          3.6606659893        0.9484653891        1.0340021347
 H          4.1770533682        1.9896702335       -0.3790430088
  16
        -21.12818007
 N         -0.0383720553       -1.9307569248       -0.0209453485
 C          1.1360936714       -1.0807991015       -0.3733037518
 C          1.3332906531        0.0700964871        0.6088754179
 C          2.4833757862        0.9512211957        0.2505403490
 C          2.3853209640        1.9310120997       -0.6262614131
 Cl        -2.8135039966        0.2143867021        0.0730494867
 H         -0.9003183594       -1.3588219964        0.0068227576
 H          0.0785892228       -2.3532064804        0.9102542734
 H         -0.1853205637       -2.6918230998       -0.6991118513
 H          1.0136026596       -0.6810072732       -1.3869139024
 H          2.0442488623       -1.6938474694       -0.4113874637
 H          1.4626469365       -0.3290183080        1.6220962281
 H          0.4172362900        0.6707706648        0.6575011614
 H          3.4427522079        0.7314113063        0.6931512362
 H          1.4517191363        2.1512241970       -1.1069959646
 H          3.2265662693        2.5420417067       -0.8937246589
  16
        -21.12814119
 N         -0.0377429514       -1.9161392448        0.2030753421
 C          1.1400461848       -1.0380200721        0.4630936472
 C          1.3336539147        0.0093635819       -0.6294464760
 C          2.4866513996        0.9197525474       -0.3662126851
 C          2.3935346404        1.9838204479        0.4067356033
 Cl        -2.8200276083        0.2052171876       -0.0586729414
 H         -0.1796069824       -2.6115640038        0.9532937247
 H          0.0711481345       -2.4248585586       -0.6849419577
 H         -0.8975930291       -1.3503595947        0.1290573717
 H          2.0473615356       -1.6463629970        0.5567377757
 H          1.0240409900       -0.5396651778        1.4328283486
 H          0.4183234771        0.6035610002       -0.7330863340
 H          1.4575603915       -0.4888306022       -1.5988591502
 H          3.4440530887        0.6537875468       -0.7872977943
 H          1.4619902028        2.2540474065        0.8654602371
 H          3.2368243569        2.6170179391        0.6080117223
  16
        -21.12815374
 N         -0.0546283940       -1.9095100918        0.3869588685
 C          1.0988101364       -1.2017050231       -0.2415126413
 C          1.2840499475        0.2079072526        0.3140929386
 C          2.4256604671        0.9444804558       -0.2999409365
 C          2.7362930456        2.1824608848        0.0302322315
 Cl        -2.8889283859        0.0994041932       -0.1173145106
 H          0.0833609397       -2.0078628427        1.4049843204
 H         -0.1955611408       -2.8507145237       -0.0068715174
 H         -0.9251544312       -1.3733644410        0.2465440286
 H          0.9569024195       -1.1528919520       -1.3277076650
 H          2.0173814435       -1.7817723096       -0.0937130783
 H          1.4256904279        0.1586369640        1.3998508821
 H          0.3614581255        0.7824105808        0.1688266042
 H          3.0133204744        0.4267254073       -1.0419074027
 H          2.1675576316        2.7168704619        0.7665521020
 H          3.5621395410        2.7013402940       -0.4183899386
  16
        -21.12752532
 N          0.0068129211       -1.9376575858        0.4148519851
 C          1.1837497704       -1.7280657598       -0.4775234702
 C          1.9601367099       -0.4585909186       -0.1270407973
 C          1.1823045538        0.7921864781       -0.3524798529
 C          1.5569491742        1.9639118454        0.1220529118
 Cl        -2.3005612710        0.7289010657        0.1217848906
 H         -0.6582466559       -1.1482128803        0.3416145775
 H          0.2999730146       -1.9982707982        1.3996055892
 H         -0.5062916785       -2.8005673890        0.1839494900
 H          0.8511143881       -1.6794423274       -1.5210949656
 H          1.8427001856       -2.6034931527       -0.4201875233
 H          2.8913971585       -0.4078695167       -0.7051035795
 H          2.2693817444       -0.5032031521        0.9238508295
 H          0.2891716780        0.7226182271       -0.9531436579
 H          2.4492300474        2.0625527432        0.7096281430
 H          0.9908628621        2.8582152878       -0.0576084562
  16
        -21.12752052
 N         -0.0932048239       -1.9122680480       -0.5049953088
 C          1.2528307718       -1.7526311561        0.1177567956
 C          1.9411082387       -0.4575090123       -0.3132959499
 C          1.2396198053        0.7692084452        0.1595015744
 C          1.4690828673        1.9656488326       -0.3448835534
 Cl        -2.2587167249        0.7337200301        0.3978436541
 H         -0.7163717665       -1.1279883004       -0.2451830016
 H         -0.5536339021       -2.7868883187       -0.2147613534
 H         -0.0235851600       -1.9174661042       -1.5318705371
 H          1.8765061535       -2.6179534188       -0.1394839442
 H          1.1587100825       -1.7732535479        1.2098664069
 H          2.0092540183       -0.4322683132       -1.4069241094
 H          2.9779686635       -0.4364012902        0.0460583531
 H          0.5370064766        0.6596343699        0.9705257162
 H          2.1756690425        2.1040003717       -1.1403112320
 H          0.9634241045        2.8415436133        0.0151459637
  16
        -21.12747774
 N          0.0082756150       -1.9357353104        0.4198347536
 C          1.1844157350       -1.7327198373       -0.4750516630
 C          1.9608776423       -0.4608947981       -0.1336105357
 C          1.1807270895        0.7876311589       -0.3636607597
 C          1.5363644941        1.9564094372        0.1323270948
 Cl        -2.2931867640        0.7354099891        0.1210042195
 H          0.3031306805       -1.9919211504        1.4073131597
 H         -0.5067389491       -2.7988331933        0.1939026484
 H         -0.6533264896       -1.1474143529        0.3435032505
 H          0.8508911068       -1.6911449914       -1.5186469236
 H          1.8433076735       -2.6078052279       -0.4122843129
 H          2.8906754953       -0.4123523970       -0.7142111076
 H          2.2727251516       -0.4998042558        0.9167368615
 H          0.3038841642        0.7193243385       -0.9880402610
 H          2.4132693702        2.0541458616        0.7427473975
 H          0.9690857748        2.8490737623       -0.0516554180
  16
        -21.12748829
 N          0.0668321464       -0.6082367571        0.5535635454
 C          0.7734277717       -0.3118591189       -0.7254078801
 C          2.2929665383       -0.3567562892       -0.5707645833
 C          2.8111500434        0.6758119460        0.3730551116
 C          2.8794771324        1.9549301372        0.0615594405
 Cl        -3.4162931687       -0.4637705745        0.0880622441
 H         -0.9632130774       -0.5749752281        0.4434895841
 H          0.3255309512        0.0716094887        1.2822918605
 H          0.3158998806       -1.5440389513        0.9032558058
 H          0.4700299988        0.6769425916       -1.0890043474
 H          0.4469133007       -1.0210710136       -1.4962598349
 H          2.7786167585       -0.2237083048       -1.5456005120
 H          2.5942480870       -1.3562083334       -0.2335019991
 H          3.1015643451        0.3578381229        1.3627922365
 H          2.5771235970        2.3051315751       -0.9064609047
 H          3.2368647069        2.6918955393        0.7556354987
  16
        -21.12722980
 N         -0.0941337108       -1.1159846357        0.1294411253
 C          0.5479128752        0.2242723297       -0.0039727564
 C          2.0709591430        0.1489319755        0.0635517554
 C          2.7382567447        1.4757258907       -0.0689120645
 C          4.0482179761        1.6217005445       -0.0398298186
 Cl        -3.5982621572       -0.7941602835       -0.0448076698
 H         -1.1273386306       -1.0547029295        0.0825377609
 H          0.1535931602       -1.5549874279        1.0268942346
 H          0.2166118530       -1.7490792291       -0.6203212733
 H          0.1763439619        0.8932332946        0.7813614100
 H          0.2431140007        0.6888897322       -0.9492235380
 H          2.4398460422       -0.5224656359       -0.7203839355
 H          2.3735901627       -0.3165975503        1.0089577982
 H          2.1075321839        2.3422079989       -0.1927798593
 H          4.6956932039        0.7749081725        0.0823943301
 H          4.5163025064        2.5830074122       -0.1362871029
  16
        -21.12712818
 N         -0.0765269298       -1.1651556288        0.2897023717
 C          0.7136110507        0.0205742888       -0.1528835255
 C          2.2181553072       -0.2071301045       -0.0418735840
 C          3.0194619507        0.9772708925       -0.4697080954
 C          3.2723027585        1.9947301747        0.3297927153
 Cl        -3.5253421505       -0.5144968961       -0.0200719606
 H         -1.0962820522       -1.0002777042        0.2097929360
 H          0.1274232807       -1.3977183588        1.2714593467
 H          0.1527529256       -1.9927461991       -0.2777589880
 H          0.4291507250        0.8983236818        0.4394254794
 H          0.4555926127        0.2746276916       -1.1878126897
 H          2.5007592340       -1.0880336071       -0.6307709650
 H          2.4749689139       -0.4650050545        0.9923565018
 H          3.3532630791        1.0149429405       -1.4952995091
 H          2.9250271266        1.9999457304        1.3449616052
 H          3.8296542679        2.8517449153        0.0019549259
  16
        -21.12700835
 N         -0.1032240806       -1.1302546034       -0.4197795665
 C          0.7265456308       -0.0040735671        0.0992930269
 C          2.2153871760       -0.2065603216       -0.1657077746
 C          3.0550240608        0.9203312837        0.3373904595
 C          3.2231146692        2.0409850521       -0.3365275910
 Cl        -3.5102724488       -0.5190155957        0.2370421902
 H          0.1662884880       -2.0228746499        0.0229660269
 H          0.0199165360       -1.2400836864       -1.4358069779
 H         -1.1094377642       -0.9804136532       -0.2392547051
 H          0.5577965147        0.1173599315        1.1758660061
 H          0.3969583961        0.9388434641       -0.3528459369
 H          2.3828109806       -0.3314566452       -1.2417277239
 H          2.5428997170       -1.1526582524        0.2826044883
 H          3.4938137209        0.8224032252        1.3185121721
 H          2.7727051752        2.1793487633       -1.3004716555
 H          3.8107145804        2.8535281270        0.0469846840
  16
        -21.12625321
 N         -0.0378664914       -1.9451394010        0.0072670012
 C          1.3683211035       -1.5564578866        0.3160344140
 C          1.9086878913       -0.5114961724       -0.6593262178
 C          1.1708844819        0.7831084163       -0.5914295517
 C          1.3300320778        1.6424707610        0.3955360015
 Cl        -2.2365279009        0.8166017782        0.1926355925
 H         -0.6655155582       -1.1235584621        0.0537445076
 H         -0.3985276429       -2.6511444076        0.6651042875
 H         -0.1113764672       -2.3319487214       -0.9438037259
 H          2.0046236200       -2.4502674851        0.3076956779
 H          1.4231064839       -1.1663137274        1.3390981812
 H          1.8682113934       -0.9116488695       -1.6795755756
 H          2.9727938517       -0.3249456466       -0.4657902021
 H          0.4469100018        0.9947229410       -1.3635389406
 H          2.0233070772        1.4486724174        1.1910960197
 H          0.7781126625        2.5620375876        0.4443961226
  16
        -21.12616487
 N         -0.0383749532       -1.9437080541       -0.0006670826
 C          1.3661603864       -1.5572150280        0.3181261158
 C          1.9152649020       -0.5131884062       -0.6533400523
 C          1.1744570350        0.7802193425       -0.5962881414
 C          1.3167460624        1.6393223122        0.3934519255
 Cl        -2.2341091042        0.8193093323        0.1957861597
 H         -0.4046995055       -2.6535179114        0.6544128994
 H         -0.1063502864       -2.3272963025       -0.9534809029
 H         -0.6638210051       -1.1239844535        0.0447642382
 H          2.0011619142       -2.4519767640        0.3144778329
 H          1.4140447097       -1.1671990122        1.3415871075
 H          1.8866715297       -0.9154755923       -1.6731550927
 H          2.9768660515       -0.3243916705       -0.4485485586
 H          0.4626066438        0.9913553579       -1.3797248481
 H          1.9975620516        1.4460837031        1.1998215203
 H          0.7627135144        2.5580155811        0.4341818371
  16
        -21.12181357
 N          0.1292600139       -2.4536335760        0.1214250536
 C          0.9740226057       -1.3539753868       -0.4296165278
 C          1.2910729711       -0.2874977705        0.6149180228
 C          2.0126946251        0.8882540374        0.0455323871
 C          1.3840205210        1.8939126362       -0.5303967804
 Cl        -2.2439468527        0.7530985376        0.0619717364
 H         -0.0742511293       -3.1786763460       -0.5847032925
 H         -0.7685600218       -2.0788315274        0.4566437530
 H          0.5923103331       -2.9083242056        0.9195587470
 H          0.4637268942       -0.8905341360       -1.2824163323
 H          1.9064120185       -1.7620259910       -0.8373086778
 H          1.8709941849       -0.7313136409        1.4330913762
 H          0.3596751418        0.0529989488        1.0826242051
 H          3.0915581955        0.8754831111        0.0620032427
 H          0.3125532917        1.9099524829       -0.5862913724
 H          1.9093700949        2.7253968432       -0.9606501036
  16
        -21.12177991
 N          0.9066779116       -2.2832465247       -0.9254054748
 C          1.7350731355       -1.9648052827        0.2734338663
 C          1.4128990714       -0.5859411107        0.8475351673
 C          1.7287008477        0.5234651193       -0.0989693435
 C          0.8225008692        1.3622251311       -0.5609988413
 Cl        -2.6414508586        1.3757416451        0.2566655837
 H          1.0524904112       -1.5809831628       -1.6670065505
 H         -0.0947654653       -2.2751485181       -0.6897831083
 H          1.1322786789       -3.2080826912       -1.3179329005
 H          2.7979028019       -2.0117696018        0.0082576302
 H          1.5874188243       -2.7396415794        1.0360858204
 H          1.9522126587       -0.4257967742        1.7900380384
 H          0.3501445389       -0.5450460792        1.1137486046
 H          2.7530515089        0.6158306396       -0.4240104239
 H         -0.2054829259        1.2864000893       -0.2621607773
 H          1.0718258476        2.1478252227       -1.2488786298
  16
        -21.12163032
 N          1.0161879973       -2.3441451799       -0.9324789865
 C          1.7380632454       -1.9855408803        0.3227212295
 C          1.3337098479       -0.6082593277        0.8465401253
 C          1.6953932462        0.4970905042       -0.0880168239
 C          0.8256466521        1.3802405016       -0.5372986975
 Cl        -2.6527072814        1.4243790537        0.2272467432
 H          1.2050886931       -1.6515543624       -1.6733915377
 H         -0.0007969351       -2.3563745373       -0.7777568980
 H          1.2935804569       -3.2698431218       -1.2877243998
 H          2.8195476117       -2.0068681035        0.1436862618
 H          1.5508138334       -2.7530850996        1.0840520208
 H          1.7898435435       -0.4194200709        1.8268231635
 H          0.2519862785       -0.5942773502        1.0243368029
 H          2.7252794289        0.5569744253       -0.4028422902
 H         -0.2055701301        1.3399568751       -0.2427143736
 H          1.1088857975        2.1662378362       -1.2114434227
  16
        -21.12118241
 N          0.8835747252       -1.5775661009        0.9068302237
 C          0.3960144672       -0.5290352211       -0.0358887999
 C          1.1093586321        0.8080146720        0.1638028968
 C          2.5625188259        0.7560683698       -0.1628804270
 C          3.4228582207        1.6661127093        0.2499000682
 Cl        -3.3124521980       -0.2920727901       -0.5244053273
 H          0.7333529906       -1.2875756538        1.8852603482
 H          1.8928073063       -1.7372804247        0.7874913545
 H          0.4033246188       -2.4774694957        0.7668560826
 H         -0.6863880495       -0.4032065921        0.0902985475
 H          0.5329078042       -0.8683685964       -1.0693930234
 H          0.9869165312        1.1297314858        1.2043877748
 H          0.6348248077        1.5900823647       -0.4427678209
 H          2.9021226469       -0.0496067216       -0.7945925551
 H          3.1064056912        2.4889501930        0.8614429835
 H          4.4644585340        1.6223955955       -0.0064417259
