  16
        -21.13057983
 N          0.2080506914       -1.4788582888        0.8414465787
 C          1.0939301253       -1.5477169764       -0.3560041302
 C          1.4201420029       -0.1599454874       -0.9059237345
 C          2.1779256826        0.6848580079        0.0622211662
 C          1.8123284314        1.9057381413        0.4014094049
 Cl        -2.6109630229        0.3808374807       -0.0833823730
 H         -0.6658801717       -0.9732652645        0.6138363956
 H          0.6646389371       -0.9638418061        1.6070404617
 H         -0.0468786182       -2.4126745338        1.1943541945
 H          0.6153634363       -2.1606143188       -1.1300882173
 H          2.0222013987       -2.0707207739       -0.0978124823
 H          0.4867361466        0.3473463274       -1.1760056674
 H          1.9878630783       -0.2392386137       -1.8421886080
 H          3.0686554365        0.2570269277        0.4945557990
 H          0.9306202186        2.3557640181       -0.0121513166
 H          2.3752215984        2.4939879490        1.1011276337
