16
 energy: -21.134623561155 gnorm: 0.000416290758 xtb: 6.5.1 (fef0646)
N            1.10376842948057        0.33073865042836        0.03083775853071
C            2.57339879119648        0.19180579753235        0.03106094355338
C            3.25184520212780        1.55885054579062       -0.05315835341295
C            4.74244311753591        1.41253245623482       -0.08551983273186
C            5.56838594540458        2.01576818307094        0.74838632603646
Cl          -0.18401037813360       -2.42697227063429        0.07247030925209
H            0.64807304124193       -0.61780999658411        0.05730937372777
H            0.78145370720325        0.80195680634337       -0.81800965833599
H            0.78429942294784        0.85291832024676        0.85033661626234
H            2.86206999497953       -0.42945098962290       -0.81657793401515
H            2.87450120216173       -0.32509830864111        0.94179684196228
H            2.96950418886749        2.17667409575083        0.79935268065476
H            2.93674039143355        2.06233122663899       -0.97037966843013
H            5.12836390463757        0.76487276200703       -0.86098047834158
H            5.21329790018236        2.66803823903832        1.52951997529800
H            6.63583513873339        1.89246448240041        0.68434509998994
