42
 energy: -47.465675441201 gnorm: 0.000358295198 xtb: 6.5.1 (fef0646)
N            2.71988657902302        1.79721372956737        1.88854007435853
C            4.13449017809746        1.89685672155868        2.23694542792820
C            4.49092193530176        1.32024919936413        3.61106325225966
C            4.17961790338845       -0.17055916520559        3.76744346877410
C            4.89945188781575       -1.08810557770693        2.77598179007148
C            6.42604213036312       -1.00508925843749        2.81355476808691
C            7.02273495784867       -1.39694510932490        4.16356977554845
C            8.54547715210702       -1.49308160794566        4.10466957008095
C            9.14591669959417       -1.88878799852372        5.45123266629813
C           10.66647196059975       -2.01151025124962        5.39212158195455
C           11.25766587895850       -2.42761038523644        6.73661445156317
C           12.77783647214013       -2.55852132262390        6.68629800693195
C           13.35301415181878       -2.98107022053101        8.03260063566261
Cl           2.18491495901380        3.04066889996795       -0.70751694298880
H            2.44286931183951        2.46237880964265        0.50910730433596
H            2.14528587481231        2.25831237109076        2.58665108886765
H            2.43394148754966        0.82611667133917        1.82548154316973
H            4.40115894781305        2.95615748244085        2.21275154900592
H            4.70159511510907        1.39150167664219        1.45411251300811
H            3.93687232779183        1.87034393132077        4.37763264849324
H            5.55198242784546        1.49347016800779        3.79104757714767
H            3.10236804064131       -0.33022153932817        3.66251178320127
H            4.44147100766109       -0.46820240018213        4.78409397459833
H            4.56427292601057       -0.86589423298038        1.76040729690856
H            4.60149399292720       -2.11667885310225        2.99503957007102
H            6.75250258717435        0.00242029489611        2.54983808048294
H            6.81844010852540       -1.68097405710750        2.04963195168084
H            6.61413256654875       -2.36268305827446        4.47105086712759
H            6.74500901618530       -0.66199211921757        4.92133883178464
H            8.95748577373416       -0.53020507714557        3.79315870389388
H            8.83160970673096       -2.23196119899992        3.35242746345168
H            8.72066755131386       -2.84452927770830        5.76717457827257
H            8.87327088589553       -1.14328114246190        6.20223146762484
H           11.09548377797450       -1.05359427232455        5.08833423999817
H           10.93941684297555       -2.74939062312802        4.63384718188970
H           10.82496365422278       -3.38442643080333        7.03906180664163
H           10.98531148424936       -1.68894437464483        7.49447834616495
H           13.21306583484162       -1.60150647134924        6.38937936967210
H           13.05143523070381       -3.29515314362369        5.92727086983933
H           13.10545100331395       -2.24971476336886        8.79922062738872
H           14.43569847712520       -3.06807432952448        7.97810201528550
H           12.94595119241706       -3.94349169377639        8.33544822346381
