28
 energy: -40.341172968725 gnorm: 0.000868532034 xtb: 6.5.1 (fef0646)
N            1.28720527595137        0.49920668745587        0.21851761381091
C            2.69618631042416        0.03381774421701        0.12259608094239
C            3.57569989321160        0.87545098309035        1.04053797687694
C            3.14412053875644        0.10282202365701       -1.31793046576531
C            3.50723545759674       -1.07793442627636       -1.99137098116848
C            3.90223756784534       -1.04592344977653       -3.29834729334108
C            3.19377166170752        1.29889264262170       -1.98694676798268
C            3.59656945476874        1.36764632705345       -3.33482919978933
C            3.95593927285409        0.17147016871930       -4.00813099197707
C            4.34874509670869        0.24053819561427       -5.36095085529391
C            4.38382966976896        1.43937397229785       -6.01680255224512
C            4.03186640702336        2.62389783589669       -5.34950820098763
C            3.64751801141873        2.58969042051989       -4.03865446360137
Cl          -0.50450800955074       -1.37429098584768       -1.36500307936270
H            0.65490589499943       -0.14027496417626       -0.33237047564212
H            1.18816316656285        1.43878752133586       -0.17547044467951
H            0.96396163481424        0.49948164833772        1.18969943073199
H            2.71470129240374       -1.01032497045635        0.44367660228291
H            3.55067470314240        1.92182764730070        0.75333927835522
H            4.60374436108490        0.53340773922821        0.97345321252564
H            3.25286692421599        0.77939658365739        2.07285853678560
H            3.45779397434882       -2.01989103245144       -1.46599655068156
H            4.17143197940548       -1.95785886810915       -3.81207509293219
H            2.92964594163387        2.22623689634775       -1.50039704660396
H            4.61827901040977       -0.67379681188784       -5.87044734256454
H            4.68205228231054        1.48433237959667       -7.05393897358037
H            4.06686214944703        3.56107211974713       -5.88488253575168
H            3.37557007673632        3.49992597228923       -3.52469541835998
