  28
        -33.79670363
 N         -2.3248016140        1.3903842412        0.4148010600
 C         -1.1968282372        0.5466000886        0.0450235700
 C          0.1520282346        1.2255716270        0.2539615690
 C          1.3541399588        0.3880451852       -0.2171728549
 C          1.5319304299       -0.9106848727        0.6052584330
 C          2.7333916953       -1.7341272263        0.1097827859
 C          4.0263182456       -0.9013345494        0.1373754383
 C          3.8643496979        0.3919434702       -0.6792222431
 C          2.6634230365        1.2121972117       -0.1787590484
 Cl        -4.8161759789       -0.7216159769       -0.2284471694
 H         -2.2987408199        2.2473170592       -0.1271250596
 H         -2.2262794620        1.6772913034        1.3823799156
 H         -3.8183190751        0.1325810436        0.0317721086
 H         -1.3072451453        0.2439084073       -1.0038844566
 H         -1.2518588218       -0.3849396165        0.6197511554
 H          0.2804206225        1.4749228996        1.3122404163
 H          0.1526253358        2.1881669562       -0.2696924382
 H          1.1761315235        0.0952902139       -1.2642271860
 H          0.6146590092       -1.5112332732        0.5807461695
 H          1.6772319976       -0.6427090985        1.6577059584
 H          2.5420912694       -2.0727005952       -0.9158585220
 H          2.8477614950       -2.6516007969        0.7031355818
 H          4.8782971878       -1.4903720780       -0.2288472271
 H          4.2721098590       -0.6468337623        1.1756465081
 H          3.7150229914        0.1379809574       -1.7357779353
 H          4.7849773452        0.9907129687       -0.6498670070
 H          2.5475322943        2.1369427324       -0.7581256045
 H          2.8435186227        1.5357615752        0.8525962990
