  28
        -33.79670363
 N         -2.3248016140        1.3903842412        0.4148010600
 C         -1.1968282372        0.5466000886        0.0450235700
 C          0.1520282346        1.2255716270        0.2539615690
 C          1.3541399588        0.3880451852       -0.2171728549
 C          1.5319304299       -0.9106848727        0.6052584330
 C          2.7333916953       -1.7341272263        0.1097827859
 C          4.0263182456       -0.9013345494        0.1373754383
 C          3.8643496979        0.3919434702       -0.6792222431
 C          2.6634230365        1.2121972117       -0.1787590484
 Cl        -4.8161759789       -0.7216159769       -0.2284471694
 H         -2.2987408199        2.2473170592       -0.1271250596
 H         -2.2262794620        1.6772913034        1.3823799156
 H         -3.8183190751        0.1325810436        0.0317721086
 H         -1.3072451453        0.2439084073       -1.0038844566
 H         -1.2518588218       -0.3849396165        0.6197511554
 H          0.2804206225        1.4749228996        1.3122404163
 H          0.1526253358        2.1881669562       -0.2696924382
 H          1.1761315235        0.0952902139       -1.2642271860
 H          0.6146590092       -1.5112332732        0.5807461695
 H          1.6772319976       -0.6427090985        1.6577059584
 H          2.5420912694       -2.0727005952       -0.9158585220
 H          2.8477614950       -2.6516007969        0.7031355818
 H          4.8782971878       -1.4903720780       -0.2288472271
 H          4.2721098590       -0.6468337623        1.1756465081
 H          3.7150229914        0.1379809574       -1.7357779353
 H          4.7849773452        0.9907129687       -0.6498670070
 H          2.5475322943        2.1369427324       -0.7581256045
 H          2.8435186227        1.5357615752        0.8525962990
  28
        -33.79636868
 N         -1.8672633659       -0.5147900427        0.2812461624
 C         -1.2293956666        0.7459554729        0.6292340738
 C          0.0693822583        0.5814948850        1.4146010098
 C          1.1627147597       -0.2116431480        0.6787749579
 C          2.3968486496       -0.4372154952        1.5855664250
 C          3.4819924101       -1.2592732261        0.8704479993
 C          3.9060887485       -0.5839189424       -0.4447652547
 C          2.6916802657       -0.3514846274       -1.3596545607
 C          1.6027130911        0.4645661308       -0.6413007712
 Cl        -4.6218340208        0.6388782875       -1.1881831211
 H         -1.2602249483       -1.0560340293       -0.3234635613
 H         -1.9916351228       -1.0729429120        1.1189971035
 H         -3.5157259005        0.1690766841       -0.5976982095
 H         -1.9467403873        1.3475803991        1.2034270606
 H         -1.0542288043        1.3203696997       -0.2876394624
 H         -0.1488481873        0.0865418962        2.3674609087
 H          0.4732551225        1.5642251628        1.6839573596
 H          0.7599240719       -1.2041339046        0.4237063370
 H          2.0949282433       -0.9142902885        2.5266034556
 H          2.8045820061        0.5387499005        1.8719309329
 H          3.0940765726       -2.2623654850        0.6549277022
 H          4.3488153710       -1.4159119579        1.5269120362
 H          4.6744698080       -1.1776267072       -0.9586293389
 H          4.3819265668        0.3788517401       -0.2215171257
 H          2.2766115170       -1.3200173434       -1.6643697919
 H          2.9956071631        0.1420105137       -2.2929690855
 H          0.7401318354        0.6213254060       -1.3000465468
 H          1.9823546230        1.4667669154       -0.4131880729
  28
        -33.79574461
 N         -2.6027756421        1.5422722008       -0.9999881434
 C         -1.1598126900        1.5538990346       -0.7839701240
 C         -0.5301578128        0.1806590235       -0.9909643783
 C          0.9930707232        0.1478726882       -0.7746886927
 C          1.5940880947       -1.2054916136       -1.2249673238
 C          3.1200263136       -1.2393792945       -1.0374940108
 C          3.5012974526       -0.9492735287        0.4240078992
 C          2.9145399144        0.3946700578        0.8877236434
 C          1.3884349680        0.4301279863        0.6946664998
 Cl        -3.3996696283       -0.4476893667        1.5452397066
 H         -2.8052374600        1.2107738590       -1.9366556909
 H         -2.9823237026        2.4818290051       -0.9445873081
 H         -3.0926505935        0.3577042632        0.5207369740
 H         -0.9649357508        1.9051247054        0.2361802613
 H         -0.6800966551        2.2853041043       -1.4467332336
 H         -0.7627134938       -0.1700851672       -2.0024802223
 H         -1.0019832326       -0.5461596680       -0.3218290794
 H          1.4436956930        0.9366167349       -1.3979173496
 H          1.3193551920       -1.4154788164       -2.2664672703
 H          1.1334540069       -2.0063154422       -0.6356527249
 H          3.5822559275       -0.4880056720       -1.6893351131
 H          3.5319963970       -2.2036770273       -1.3650425336
 H          4.5920671098       -0.9654280896        0.5540438460
 H          3.1187774604       -1.7527964871        1.0652742016
 H          3.3714975464        1.2080395628        0.3108264601
 H          3.1793176367        0.5953122791        1.9349200644
 H          0.9790394979        1.3916337859        1.0268763605
 H          0.9178424914       -0.3238155737        1.3355693220
  28
        -33.79572283
 N         -2.6679813600        1.4435987160       -0.9892530441
 C         -1.3505238351        0.9103253903       -1.3192880361
 C         -0.3515525523        1.0835120269       -0.1803458947
 C          1.0494864708        0.5230727499       -0.4822394853
 C          1.0509735322       -1.0176119450       -0.6294731927
 C          2.4595405058       -1.5565399547       -0.9334319642
 C          3.4651553316       -1.1206991453        0.1456833366
 C          3.4774312581        0.4096256457        0.2983147390
 C          2.0679066866        0.9432288251        0.6047189097
 Cl        -3.3854025855       -0.7259291246        1.4301148115
 H         -3.2848542886        1.4021088088       -1.7939450139
 H         -2.5880058676        2.4245970383       -0.7451821078
 H         -3.1116738750        0.1500430116        0.4555250199
 H         -0.9618142231        1.3866250904       -2.2291297939
 H         -1.4586156299       -0.1522453693       -1.5639569582
 H         -0.7392443046        0.6076156390        0.7259474131
 H         -0.2734471825        2.1480232539        0.0676025361
 H          1.3889425891        0.9493542256       -1.4396521552
 H          0.3411941619       -1.3323138866       -1.4038531630
 H          0.6800825634       -1.4592931273        0.3021849274
 H          2.7888182004       -1.1792829799       -1.9093610186
 H          2.4446148664       -2.6504699236       -1.0335134460
 H          4.4712071057       -1.4989353591       -0.0817981193
 H          3.1906198350       -1.5788508137        1.1037666527
 H          3.8432733693        0.8642340896       -0.6304550724
 H          4.1893579349        0.7193994783        1.0755811857
 H          2.0747410077        2.0347928318        0.7173889825
 H          1.7292119276        0.5532515832        1.5711683447
  28
        -33.79565377
 N         -2.3459524718        1.2082892728       -0.7202538753
 C         -1.0589056096        0.6120204800       -0.3890486272
 C          0.0988480075        1.2146287733       -1.1771518686
 C          1.4781242394        0.6110730984       -0.8518209684
 C          1.5707240658       -0.8956031155       -1.1864644462
 C          2.9941980589       -1.4284657898       -0.9478934876
 C          3.4430841618       -1.1726023836        0.5022596265
 C          3.3316155557        0.3192965946        0.8649629535
 C          1.9061260523        0.8424540423        0.6157102289
 Cl        -4.2692132455       -0.5855589786        1.3200210264
 H         -2.5194174409        1.1048955838       -1.7138162914
 H         -2.3087887930        2.2080422309       -0.5530182666
 H         -3.5015333949        0.1397594399        0.4968472027
 H         -1.1182355820       -0.4692814009       -0.5620290865
 H         -0.8877141409        0.7225082222        0.6878481471
 H          0.1242405574        2.2955767998       -1.0001444993
 H         -0.1040681124        1.1016239084       -2.2481253787
 H          2.2277241123        1.1196228735       -1.4816170187
 H          1.2405213274       -1.0794958752       -2.2165776144
 H          0.8697957878       -1.4460209952       -0.5498319079
 H          3.6883421312       -0.9311381125       -1.6362368754
 H          3.0559068219       -2.4975083925       -1.1931314413
 H          4.4672233316       -1.5364307223        0.6623832001
 H          2.8158333837       -1.7592244750        1.1845886167
 H          4.0411017293        0.8948161381        0.2580032982
 H          3.6327055127        0.4914393423        1.9073548752
 H          1.8169966799        1.9044058105        0.8769884152
 H          1.2095331081        0.3169492571        1.2776547063
  28
        -33.79560723
 N         -2.4773125212        1.0793997401        0.8872979706
 C         -1.4367054785        2.1005389565        0.8666209803
 C         -0.1233467853        1.6211804942        1.4792467040
 C          0.4788381284        0.3922364624        0.7790646685
 C          1.6724563160       -0.1848861406        1.5774076216
 C          2.2528041883       -1.4368425212        0.8987220727
 C          2.6811123767       -1.1306051596       -0.5464541985
 C          1.5077556906       -0.5538187088       -1.3563093073
 C          0.9207584937        0.6935712341       -0.6727868834
 Cl        -1.9474872632       -1.0901267073       -1.5796710843
 H         -3.3773207693        1.4869195749        0.6511241252
 H         -2.5738390066        0.7195548776        1.8304440415
 H         -2.1711734296       -0.2159258947       -0.5910895486
 H         -1.7866882328        3.0011513186        1.3906160608
 H         -1.2749074771        2.4123749647       -0.1713161102
 H         -0.2894991579        1.3828819875        2.5357723994
 H          0.6184095390        2.4281160333        1.4754774761
 H         -0.2961507362       -0.3887595300        0.7363225299
 H          1.3711418679       -0.3989468020        2.6106904422
 H          2.4482733269        0.5851954396        1.6538086830
 H          1.4946144896       -2.2294789994        0.8919029800
 H          3.0935534930       -1.8411791010        1.4788043610
 H          3.0868894093       -2.0285903719       -1.0321677949
 H          3.5051956739       -0.4067680318       -0.5354098155
 H          0.7249848284       -1.3159698321       -1.4524370368
 H          1.8184568613       -0.3242310603       -2.3847199578
 H          0.0833540119        1.0960652581       -1.2551256475
 H          1.6720152298        1.4909320557       -0.6528758305
  28
        -33.79552094
 N         -2.0973777893       -0.4613643556        1.3250820673
 C         -1.3786877018        0.7572264676        1.6785532941
 C         -0.3780821021        1.1950195369        0.6109050048
 C          0.6786129655        0.1352197107        0.2589908082
 C          1.5657357439       -0.2453538768        1.4676347376
 C          2.6046414017       -1.3154697636        1.0901825312
 C          3.4760613454       -0.8509691048       -0.0892624513
 C          2.6062571995       -0.4700623497       -1.2993495456
 C          1.5702056415        0.6005483209       -0.9174027555
 Cl        -3.2191309787        0.2883013217       -1.7123053287
 H         -2.7818408347       -0.6903714155        2.0383924655
 H         -1.4562678283       -1.2468768735        1.2978835459
 H         -2.7791785262       -0.0213854841       -0.4862732726
 H         -0.8699119734        0.6260862631        2.6423424169
 H         -2.1114331819        1.5574471863        1.8446900661
 H          0.1346281392        2.1108664849        0.9260205814
 H         -0.9218911130        1.4674573609       -0.3005748730
 H          0.1565869163       -0.7770236835       -0.0694311752
 H          0.9476874124       -0.5842001836        2.3078412012
 H          2.0768161975        0.6553715698        1.8255069620
 H          2.0862441048       -2.2421221498        0.8148759152
 H          3.2276126800       -1.5762041596        1.9566848001
 H          4.2080452483       -1.6234449462       -0.3621046647
 H          4.0700632028        0.0182326126        0.2187088285
 H          2.0862427617       -1.3625554967       -1.6683160967
 H          3.2297420018       -0.1280326341       -2.1367257313
 H          0.9486839241        0.8747680569       -1.7792672899
 H          2.0849760614        1.5224719852       -0.6244638437
  28
        -33.79471400
 N         -1.8474178414        0.5076945234        0.9690407417
 C         -1.2393624014        0.9865640704       -0.2647587169
 C          0.1716666162        1.5583882878       -0.0724757961
 C          1.3074503746        0.5634547423       -0.3748863293
 C          1.2630105956       -0.6992105631        0.5176559615
 C          2.4144487190       -1.6671899045        0.1929074318
 C          3.7799559556       -0.9699925290        0.3122139557
 C          3.8371195156        0.2786317279       -0.5833489612
 C          2.6906118847        1.2467490325       -0.2476666912
 Cl        -4.6827598630       -0.7353589181       -0.2522456645
 H         -1.9266759165        1.2761285253        1.6258346802
 H         -1.2422295922       -0.1689627722        1.4192138489
 H         -3.5442215957       -0.2359901338        0.2450358062
 H         -1.9095940972        1.7416933544       -0.6984284383
 H         -1.2221324744        0.1737475632       -1.0007178153
 H          0.2789679427        1.9205334342        0.9550703104
 H          0.3079996064        2.4458426520       -0.7030722270
 H          1.1965194017        0.2295063836       -1.4190663830
 H          0.2977333246       -1.2080035190        0.4091819053
 H          1.3216850603       -0.3921260652        1.5677299591
 H          2.2902249332       -2.0481257048       -0.8282162642
 H          2.3719620943       -2.5530771942        0.8412702583
 H          4.5960988414       -1.6638095661        0.0682779528
 H          3.9478786249       -0.6765964455        1.3557298046
 H          3.7600627082       -0.0244056641       -1.6346991777
 H          4.8105099870        0.7801208334       -0.4940116883
 H          2.7316770658        2.1419884460       -0.8810135398
 H          2.8074539867        1.6116153714        0.7790208875
  28
        -33.79468577
 N         -1.5516703108        0.8292359474       -0.4146624586
 C         -1.3615556809        0.1348690761        0.8488255502
 C          0.0319886741        0.2888475778        1.4564880842
 C          1.1739431727       -0.2855667108        0.5863358489
 C          2.3278718385       -0.8502883663        1.4511594038
 C          3.4322873194       -1.4739795076        0.5805432687
 C          3.9776535379       -0.4568738883       -0.4369952484
 C          2.8423361488        0.1276220053       -1.2949191940
 C          1.7495324199        0.7500848183       -0.4096324179
 Cl        -4.8026449818        0.3014771668       -0.8906259822
 H         -1.2591084470        1.7950598259       -0.3176411358
 H         -0.9593209114        0.4221271345       -1.1295706857
 H         -3.4942229133        0.5151781844       -0.7032891429
 H         -1.5906320317       -0.9285403494        0.7033710893
 H         -2.1225281444        0.4951281188        1.5530529605
 H          0.0517308877       -0.2017757762        2.4374185550
 H          0.2361154237        1.3450164182        1.6627044677
 H          0.7673166877       -1.1256144202        0.0009785309
 H          1.9398856971       -1.5774388752        2.1757033168
 H          2.7474620648       -0.0352912681        2.0515249624
 H          3.0257342891       -2.3406432787        0.0450801958
 H          4.2426095496       -1.8718875625        1.2065748694
 H          4.7490591918       -0.9149154515       -1.0710876750
 H          4.4843169888        0.3558854060        0.0976661445
 H          2.4022495698       -0.6696719659       -1.9062898321
 H          3.2315902231        0.8640784346       -2.0111712498
 H          0.9577607405        1.2005796564       -1.0181083540
 H          2.1767945947        1.5810588803        0.1631089810
  28
        -33.79465637
 N         -1.6966236334       -0.2772490887        0.5368642223
 C         -1.2500264219        1.0033130163        0.0119193452
 C          0.1664484357        1.4015573187        0.4240845936
 C          1.2697820534        0.4354591306       -0.0662397327
 C          1.5497410391       -0.7126774755        0.9336720176
 C          2.6145713201       -1.6808499618        0.3917169051
 C          3.9226715287       -0.9365442662        0.0731964284
 C          3.6716026022        0.2245655431       -0.9043280600
 C          2.5940731107        1.1808578111       -0.3643673855
 Cl        -4.8769863323       -0.2275163910       -0.4457184442
 H         -1.5416117055       -0.3053690890        1.5383602470
 H         -1.1436546816       -1.0289614331        0.1408438710
 H         -3.5984401441       -0.2528582340       -0.0490303362
 H         -1.9665148431        1.7713275746        0.3329806147
 H         -1.3291231981        0.9816106032       -1.0818894782
 H          0.2281187257        1.4906979903        1.5137824154
 H          0.3809729858        2.4080040274        0.0434861201
 H          0.9321495862       -0.0165034484       -1.0124690846
 H          0.6291869023       -1.2456836320        1.1957512713
 H          1.9032628092       -0.2745287675        1.8739764459
 H          2.2379825589       -2.1592645112       -0.5207306395
 H          2.7931237328       -2.5016424934        1.0997638469
 H          4.6770803380       -1.6275406218       -0.3271191690
 H          4.3519260109       -0.5425519815        1.0025065154
 H          3.3466885521       -0.1788968961       -1.8711696714
 H          4.6037907047        0.7671107710       -1.1130678470
 H          2.4161684275        2.0081095463       -1.0631234768
 H          2.9477325758        1.6507222519        0.5602839466
  28
        -33.79415765
 N         -2.6078249432        1.4822826325       -0.6478137821
 C         -1.2017977181        1.8190398669       -0.4495981949
 C         -0.2668554778        0.7720062771       -1.0454325915
 C          1.2278909753        1.0424145722       -0.7956724962
 C          2.1232468773        0.0645451416       -1.6025751260
 C          2.0719039907       -1.3681559268       -1.0426585298
 C          2.4444475821       -1.3999039669        0.4489893472
 C          1.5504643932       -0.4513027986        1.2643846739
 C          1.6113558294        0.9811427632        0.7067907213
 Cl        -2.5070188905       -1.2404127173        1.2668088134
 H         -2.7978196579        1.3768936013       -1.6381119553
 H         -3.2075432260        2.2339127927       -0.3233260994
 H         -2.5687122454       -0.1456824779        0.4987682117
 H         -1.0201404475        1.9139530454        0.6272895255
 H         -0.9778832169        2.8048196990       -0.8766345284
 H         -0.4500188053        0.7013939868       -2.1233901617
 H         -0.5285539201       -0.2143570795       -0.6519816497
 H          1.4319109764        2.0662348040       -1.1548100328
 H          3.1601445649        0.4213061306       -1.5896110559
 H          1.8230309244        0.0728238274       -2.6581465522
 H          2.7320545379       -2.0310492694       -1.6190209180
 H          1.0648955920       -1.7807321097       -1.1764627654
 H          3.4932778131       -1.1015406878        0.5675148272
 H          2.3858816356       -2.4238942692        0.8430019682
 H          1.8363281824       -0.4660006170        2.3252421783
 H          0.5158314119       -0.8132890291        1.2426100796
 H          2.6283253476        1.3712317841        0.8356832382
 H          0.9714180645        1.6504230658        1.2939477349
  28
        -33.79407695
 N         -1.6646321710        1.8304649293        0.0485960211
 C         -1.1930661968        1.1641251199       -1.1605615802
 C         -0.5280686384       -0.1891790224       -0.8757426575
 C          1.0080767003       -0.1394442038       -0.7830647310
 C          1.5957099917       -1.5586050251       -0.5897280454
 C          3.1318191452       -1.5359808331       -0.5306646760
 C          3.6230644120       -0.6042557863        0.5895735670
 C          3.0562761490        0.8138463618        0.4095630240
 C          1.5189223268        0.7960257784        0.3378390366
 Cl        -3.9843519432       -0.3634642927        0.9839006010
 H         -2.0074302817        2.7616398325       -0.1638986832
 H         -0.9047916484        1.9527365553        0.7074385912
 H         -3.0572297805        0.5277567682        0.6119579139
 H         -0.5032839591        1.8110216980       -1.7186700629
 H         -2.0600194693        1.0264372621       -1.8202884386
 H         -0.8080485432       -0.9175074338       -1.6467696072
 H         -0.9278070602       -0.5954283627        0.0591135252
 H          1.3932932246        0.2529710713       -1.7378929192
 H          1.2408617585       -2.2281300725       -1.3835271205
 H          1.1990330986       -1.9772019768        0.3420771722
 H          3.5267748872       -1.1871692060       -1.4926745373
 H          3.5328040606       -2.5504190134       -0.4002306210
 H          4.7208128488       -0.5849310114        0.6289571871
 H          3.3027132969       -1.0027741977        1.5600203356
 H          3.4569224322        1.2495678042       -0.5139542133
 H          3.3999396370        1.4753837894        1.2166139682
 H          1.1346506318        1.8122044544        0.1894449731
 H          1.1066984266        0.4583205753        1.2951583179
  28
        -33.79388476
 N         -1.9992239403        0.7108177329       -1.4180345574
 C         -1.4473631893        1.8764439676       -0.7382009537
 C         -0.3819294870        1.5416544653        0.3057387151
 C          0.8284624000        0.7565802228       -0.2458995901
 C          0.5932335904       -0.7732748680       -0.2507652705
 C          1.7936105270       -1.5232137701       -0.8515399961
 C          3.0855387333       -1.1969612982       -0.0826978136
 C          3.3346659696        0.3207098989       -0.0414894639
 C          2.1233037552        1.0666956457        0.5444657749
 Cl        -2.9391958722       -1.1320969849        1.1850068748
 H         -1.2960765640        0.3076195558       -2.0272311227
 H         -2.7595384394        0.9860573691       -2.0317516891
 H         -2.5745090436       -0.3910985746        0.1311666143
 H         -2.2710948246        2.4203966957       -0.2564720588
 H         -1.0308912755        2.5718954031       -1.4784245098
 H         -0.8279060561        0.9698984209        1.1262253124
 H         -0.0254056540        2.4707204136        0.7677406003
 H          0.9978154696        1.0764807484       -1.2863092908
 H         -0.3353692674       -1.0306312086       -0.7720339409
 H          0.4397828634       -1.1034991549        0.7828862072
 H          1.9131923205       -1.2324633463       -1.9023739207
 H          1.6095446832       -2.6061358079       -0.8669099628
 H          3.9443809318       -1.7212382685       -0.5236870733
 H          3.0049399900       -1.5798844573        0.9419772589
 H          3.5277053767        0.6847017520       -1.0579854455
 H          4.2453087099        0.5506910817        0.5283463010
 H          2.3026696061        2.1490218955        0.5710788141
 H          1.9763569043        0.7693193761        1.5888639213
  28
        -33.79384501
 N         -1.6477937481        1.2980331438        0.1847100460
 C         -1.1703786688        0.4539824298       -0.9017511628
 C          0.0880218798        0.9891318514       -1.5955600199
 C          1.4247825210        0.5017581061       -1.0016937487
 C          1.6575202930       -1.0133762834       -1.2089122407
 C          3.0604544351       -1.4264705455       -0.7302591086
 C          3.2760416858       -1.0454766425        0.7458039396
 C          3.0147120164        0.4536255265        0.9790339762
 C          1.6096657028        0.8490178096        0.4919464633
 Cl        -4.2771263775       -0.4951793898        1.1579644331
 H         -1.8409100869        2.2281272619       -0.1698157038
 H         -0.9241426712        1.4194696419        0.8829493550
 H         -3.2212440760        0.2311161762        0.7701289148
 H         -1.9913932139        0.3493988225       -1.6246674852
 H         -1.0028640468       -0.5605359712       -0.5237962002
 H          0.0582074190        2.0841594887       -1.5769454360
 H          0.0664763843        0.7187646462       -2.6587278283
 H          2.2380585359        1.0153207761       -1.5426761025
 H          1.4971828493       -1.2842956430       -2.2600462820
 H          0.9051749038       -1.5735604866       -0.6438835645
 H          3.8167953520       -0.9277017621       -1.3484668398
 H          3.2223460713       -2.5022140150       -0.8831678017
 H          4.2881653153       -1.3190384204        1.0738971676
 H          2.5972145041       -1.6340477291        1.3750164186
 H          3.7659578527        1.0421000841        0.4383707130
 H          3.1472360118        0.7135877678        2.0381423491
 H          1.4086011512        1.9132542105        0.6672192118
 H          0.8645705807        0.2993533431        1.0769015821
  28
        -33.79347275
 N         -2.2454467027        0.9427617423        1.2674094770
 C         -1.6913517954        2.0059224920        0.4380832528
 C         -0.1670922259        2.0975111653        0.4884994568
 C          0.5594144687        0.8368744307       -0.0207115338
 C          0.5782071578       -0.3056200015        1.0223283457
 C          1.2685826298       -1.5625784794        0.4666748933
 C          2.7023941170       -1.2462269404        0.0080375335
 C          2.7118188873       -0.1001738273       -1.0181958241
 C          2.0109491133        1.1497289505       -0.4584254211
 Cl        -2.0576090640       -1.5557688653       -0.9474086022
 H         -3.2528210618        1.0446592996        1.3524673901
 H         -1.8827168686        1.0317957197        2.2097944802
 H         -2.1501467985       -0.5585885243       -0.0608161607
 H         -2.1317351754        2.9698621216        0.7297801752
 H         -2.0114705187        1.8392273621       -0.5974303603
 H          0.1603676497        2.3053469238        1.5123900614
 H          0.1643406731        2.9610853165       -0.1013930002
 H          0.0227887721        0.4708778457       -0.9103244939
 H         -0.4354751672       -0.5348600596        1.3688771270
 H          1.1149031000        0.0428369937        1.9118968433
 H          0.6919469903       -1.9458341316       -0.3839722314
 H          1.2643470617       -2.3712240815        1.2102135967
 H          3.1870084312       -2.1423216078       -0.4031823324
 H          3.3070573039       -0.9603097287        0.8774090135
 H          2.1968495910       -0.4261495224       -1.9301768235
 H          3.7381913562        0.1358831063       -1.3308426660
 H          2.0205250619        1.9679942935       -1.1895409669
 H          2.5652846650        1.5264102006        0.4085037024
  28
        -33.79296426
 N         -1.3393732636        0.7205401471        0.5093008650
 C         -1.1843460730        0.4343683295       -0.9085692115
 C          0.0827505321        1.0008655229       -1.5504919490
 C          1.4233878436        0.4451002421       -1.0208399204
 C          1.4397263744       -1.0945418684       -0.8888223405
 C          2.8395501780       -1.6012466622       -0.5002101419
 C          3.3240897971       -0.9399449949        0.8027866899
 C          3.2942078722        0.5953160015        0.6936600762
 C          1.8910780478        1.0931853653        0.3039170229
 Cl        -4.4780234481       -0.2972392602        0.9482298115
 H         -1.1440133237        1.7002620383        0.6817455345
 H         -0.6685635200        0.1932253599        1.0555291308
 H         -3.2153913061        0.1143042555        0.7781072941
 H         -2.0691895902        0.8316274751       -1.4246585323
 H         -1.2389723136       -0.6497352740       -1.0629527903
 H          0.0841711300        2.0908798582       -1.4408560170
 H          0.0334212234        0.8219185870       -2.6323888100
 H          2.2011767746        0.6993543375       -1.7621623595
 H          1.0887781002       -1.5604865818       -1.8181967151
 H          0.7214844993       -1.3946769563       -0.1184309006
 H          3.5457844379       -1.3733395486       -1.3078528025
 H          2.8453795019       -2.6959120465       -0.4080475306
 H          4.3307569801       -1.2917858826        1.0667609568
 H          2.6786282899       -1.2566408482        1.6311966437
 H          4.0186241984        0.9200768803       -0.0631405734
 H          3.6255485557        1.0598627652        1.6324620559
 H          1.8642325729        2.1872061265        0.2234035254
 H          1.1910052258        0.8432150071        1.1053838887
  28
        -33.79239980
 N         -2.3884056758        1.3240013882       -0.0435660885
 C         -1.3905406340        2.1443214798       -0.7219309125
 C         -0.0417369269        2.1748812910        0.0052258663
 C          0.9238436135        1.0520542862       -0.4120612800
 C          0.3259087362       -0.3563599833       -0.1982151689
 C          1.3078194175       -1.4653734778       -0.6136941945
 C          2.6475675664       -1.3281850915        0.1288955080
 C          3.2571391410        0.0661148968       -0.0933818549
 C          2.2745556370        1.1691279262        0.3343441054
 Cl        -2.4982582642       -1.9515043658        0.6214416455
 H         -3.2820147321        1.4131839408       -0.5188624800
 H         -2.5325354920        1.6962663663        0.8900974260
 H         -2.4750343764       -0.6405002855        0.3634967678
 H         -1.7814923511        3.1659534910       -0.8351799883
 H         -1.2493773198        1.7727029913       -1.7438401525
 H         -0.2136337607        2.1138757723        1.0846089180
 H          0.4539577871        3.1407552178       -0.1535819951
 H          1.1274541189        1.1609621530       -1.4895536960
 H         -0.6151349271       -0.4489603038       -0.7531130613
 H          0.0608098945       -0.4709980114        0.8585476031
 H          1.4840111766       -1.4079258918       -1.6947959576
 H          0.8675037557       -2.4572007529       -0.4423340463
 H          3.3487059167       -2.1155071310       -0.1800759447
 H          2.4849768337       -1.4863455790        1.2021033185
 H          3.5017700685        0.1903044818       -1.1553882574
 H          4.2122928159        0.1653801512        0.4402560969
 H          2.7078695375        2.1657042259        0.1815256365
 H          2.0867976238        1.0956240074        1.4114540804
