28
 energy: -33.804256430033 gnorm: 0.000656060029 xtb: 6.5.1 (fef0646)
N            1.06473363484846       -0.14616300456319        0.14916269773605
C            2.52817864240252       -0.17146392055365        0.16548356810513
C            3.05329073204622       -0.30140541431931       -1.26150495052944
C            4.57344138082528       -0.14681654562489       -1.37387872740185
C            4.97472901213549       -0.01798792179963       -2.84562682120495
C            6.48323066748156        0.15279332232376       -2.99454545104440
C            7.21778244751796       -1.02516607499383       -2.36362362737521
C            6.83290760157404       -1.15480410012294       -0.89413339910280
C            5.32302889074132       -1.32363422429158       -0.74531877940190
Cl           0.06652347450029        2.09305374494342       -1.45332938110973
H            0.68640095138275       -0.05607892196973        1.08529264906242
H            0.69800555166140       -0.99335267035502       -0.27160206292939
H            0.55253675612606        1.04831776976201       -0.69831191225968
H            2.90986205347927       -0.99042922299812        0.78938051241123
H            2.86645807087379        0.77362727660053        0.59642575535346
H            2.57326814447390        0.47245664719833       -1.86216342362501
H            2.75825529584085       -1.27150622569057       -1.66909079431086
H            4.86753092129802        0.77177344880202       -0.85410230947718
H            4.46110516802077        0.83624537628855       -3.29086343430521
H            4.65756642075099       -0.91501492672799       -3.38288015879639
H            6.79339639570807        1.07773061519345       -2.50283079584736
H            6.74337293519280        0.23293751469185       -4.05199472181346
H            8.29696211858387       -0.88741112466918       -2.45637601433470
H            6.95064393513496       -1.94384875642783       -2.89115574622126
H            7.15004962759751       -0.25772407502659       -0.35726424978576
H            7.34507596664810       -2.00989316393610       -0.44753106895018
H            5.07509183658569       -1.40599788514189        0.31447419983047
H            5.01365136657613       -2.24929753658660       -1.23689155266897
