  28
        -33.83887514
 N         -2.3812514186       -1.8981958635       -0.2481535559
 C         -1.0057010420       -1.6294679018        0.2651970662
 C         -0.3561362099       -0.4411090956       -0.4329513784
 C          1.0220069323       -0.0545524029        0.1346695922
 C          1.5187276433        1.2863340068       -0.4582130166
 C          2.8807695209        1.6956790837        0.1278229066
 C          3.9305870420        0.5935565623       -0.0962559335
 C          3.4534586795       -0.7472468721        0.4880773843
 C          2.0880265509       -1.1527332535       -0.0948408936
 Cl        -4.1810696697        1.0860590434        0.1499123596
 H         -2.3612499002       -2.1219599833       -1.2519354266
 H         -2.9778542484       -1.0613397512       -0.1320852021
 H         -2.8345057575       -2.6809700494        0.2433801812
 H         -0.3869901156       -2.5256939603        0.1446577592
 H         -1.0445370252       -1.4447953857        1.3453586401
 H         -1.0287291518        0.4219609137       -0.3690953562
 H         -0.2583644615       -0.6478152986       -1.5036956438
 H          0.9161149423        0.0823966719        1.2226442970
 H          0.7687107288        2.0722928025       -0.3012047244
 H          1.6034825524        1.1787606772       -1.5455310720
 H          2.7720646556        1.8804596008        1.2036924528
 H          3.2183678670        2.6499573054       -0.2995712345
 H          4.8996249385        0.8840205779        0.3326307556
 H          4.1109963902        0.4771761258       -1.1720637586
 H          3.3700092821       -0.6585526270        1.5783139507
 H          4.1996758353       -1.5351891080        0.3162214015
 H          1.7545786216       -2.1079724775        0.3281173096
 H          2.1844672443       -1.3288218033       -1.1720476035
