15
 energy: -17.352094578652 gnorm: 0.000540013683 xtb: 6.5.1 (fef0646)
N            2.95413988536619       -1.45882601208466       -0.33404134557893
C            2.48920481818647       -0.10617451197139        0.04456208217123
C            3.05830936161865        0.27650852916995        1.39826010976000
S            4.90796418114270        0.27040381286710        1.30049643278378
C            5.30180764372881        0.75624198832156        2.98634136648834
H            2.65940123355755       -1.70016839769375       -1.28610284159045
H            2.59562665295886       -2.16350002931769        0.32027749728015
H            3.98252190353475       -1.47116961371657       -0.28300062151071
H            1.39996187672241       -0.08457250281528        0.08636295964832
H            2.83311300309791        0.60867121597322       -0.70282352234163
H            2.76911275067585       -0.42667688144025        2.17792119097626
H            2.74358000727829        1.27921742368799        1.67893121052706
H            6.38488729441992        0.75376372303427        3.06993068019931
H            4.87419426336770        0.03937961108348        3.68145891722138
H            4.91852512434394        1.75609164490202        3.17441588396588
