  22
        -27.43448448
 N          0.3054051840       -1.8899621212       -0.0040714593
 C          1.5357653667       -1.0357304966        0.0042997583
 C          1.6207621127       -0.1632982037       -1.2665472188
 C          0.5720747966        0.9612352320       -1.2688366585
 C          0.6769670977        1.8234570481       -0.0002801505
 C          0.5561723185        0.9611807542        1.2669218422
 C          1.6042752764       -0.1643701974        1.2774263811
 Cl        -2.7033021222       -0.0638005013       -0.0030649889
 H          0.2642200970       -2.4985924117        0.8283527715
 H          0.2711643687       -2.4923546814       -0.8419124568
 H         -0.5492912052       -1.3107192457       -0.0053761564
 H          2.4039478641       -1.7181694460        0.0095700974
 H          1.5027019465       -0.7972887599       -2.1550938870
 H          2.6234429761        0.2736157273       -1.3451395319
 H         -0.4333655643        0.5281687155       -1.3362873169
 H          0.6761647298        1.5845223066       -2.1685644805
 H         -0.0828811465        2.6180851468       -0.0051030554
 H          1.6431040301        2.3439681319        0.0057711187
 H         -0.4503926021        0.5288746510        1.3224253486
 H          0.6499233767        1.5844129310        2.1678070840
 H          1.4736389110       -0.7990591209        2.1631638671
 H          2.6061156593        0.2717647098        1.3700507409
