  22
        -27.43448448
 N          0.3054051840       -1.8899621212       -0.0040714593
 C          1.5357653667       -1.0357304966        0.0042997583
 C          1.6207621127       -0.1632982037       -1.2665472188
 C          0.5720747966        0.9612352320       -1.2688366585
 C          0.6769670977        1.8234570481       -0.0002801505
 C          0.5561723185        0.9611807542        1.2669218422
 C          1.6042752764       -0.1643701974        1.2774263811
 Cl        -2.7033021222       -0.0638005013       -0.0030649889
 H          0.2642200970       -2.4985924117        0.8283527715
 H          0.2711643687       -2.4923546814       -0.8419124568
 H         -0.5492912052       -1.3107192457       -0.0053761564
 H          2.4039478641       -1.7181694460        0.0095700974
 H          1.5027019465       -0.7972887599       -2.1550938870
 H          2.6234429761        0.2736157273       -1.3451395319
 H         -0.4333655643        0.5281687155       -1.3362873169
 H          0.6761647298        1.5845223066       -2.1685644805
 H         -0.0828811465        2.6180851468       -0.0051030554
 H          1.6431040301        2.3439681319        0.0057711187
 H         -0.4503926021        0.5288746510        1.3224253486
 H          0.6499233767        1.5844129310        2.1678070840
 H          1.4736389110       -0.7990591209        2.1631638671
 H          2.6061156593        0.2717647098        1.3700507409
  22
        -27.43436796
 N          0.3070456684       -1.8917982502        0.0010610023
 C          1.5366677073       -1.0365230344        0.0049189203
 C          1.6162435219       -0.1643067034       -1.2663903625
 C          0.5656870382        0.9585228973       -1.2657687857
 C          0.6720387354        1.8209089372        0.0026332490
 C          0.5577648976        0.9585494434        1.2704031701
 C          1.6085058161       -0.1645181825        1.2773608717
 Cl        -2.7004549711       -0.0590812300       -0.0095428026
 H          0.2722292967       -2.4968568501       -0.8342222129
 H         -0.5477739368       -1.3132558312       -0.0009847742
 H          0.2676067660       -2.4980400492        0.8363285848
 H          2.4055545165       -1.7181067704        0.0075134978
 H          1.4963744773       -0.7987875971       -2.1543387062
 H          2.6179330157        0.2742568710       -1.3482988946
 H         -0.4392248814        0.5239641786       -1.3313138518
 H          0.6668195068        1.5821819358       -2.1655836546
 H         -0.0904091487        2.6130481795        0.0002647098
 H          1.6364753470        2.3446067962        0.0056372854
 H         -0.4475874320        0.5238862189        1.3295889885
 H          0.6533032928        1.5821179592        2.1708688965
 H          1.4830963508       -0.7990109322        2.1639955917
 H          2.6097033784        0.2740113100        1.3655096721
  22
        -27.43426498
 N          0.3081041005       -1.8927104420        0.0019409620
 C          1.5374124043       -1.0369862429        0.0050402210
 C          1.6156542516       -0.1646206250       -1.2662446693
 C          0.5635289528        0.9567317903       -1.2651998786
 C          0.6693511620        1.8193360892        0.0031365040
 C          0.5571930746        0.9569198038        1.2710738239
 C          1.6094157667       -0.1647613274        1.2773015100
 Cl        -2.6992300497       -0.0562772141       -0.0107088001
 H         -0.5465075427       -1.3147666225       -0.0006853581
 H          0.2689339140       -2.4981181523        0.8374266217
 H          0.2735767328       -2.4990614089       -0.8334824728
 H          2.4066526938       -1.7181086815        0.0071509298
 H          1.4966516555       -0.7991218325       -2.1542909846
 H          2.6167027144        0.2754131562       -1.3480927405
 H         -0.4407893863        0.5206769525       -1.3300115883
 H          0.6631372265        1.5803748388       -2.1651988279
 H         -0.0942983406        2.6103246222        0.0011780818
 H          1.6329990029        2.3444887291        0.0054989946
 H         -0.4475277000        0.5209492474        1.3311743420
 H          0.6526505907        1.5806872891        2.1714006450
 H          1.4858839616       -0.7992019212        2.1642383371
 H          2.6101027415        0.2751906895        1.3642013180
  22
        -27.43379417
 N          0.2997761239       -1.9613206733       -0.0030516814
 C          1.1018791220       -0.6957962423        0.0017129512
 C          0.8275486347        0.1356530226       -1.2646909249
 C          1.6388744100        1.4424862221       -1.2641740268
 C          1.3517202930        2.2702867705        0.0007509569
 C          1.6192281598        1.4453154986        1.2718712574
 C          0.8076820554        0.1383137093        1.2624173431
 Cl        -3.0184596859       -0.9524518592       -0.0016241999
 H          0.4982972275       -2.5331971995       -0.8386556745
 H         -0.7080838115       -1.7355968824       -0.0076265816
 H          0.4899819360       -2.5345099636        0.8346227638
 H          2.1710481511       -0.9616847423        0.0102990397
 H         -0.2433934158        0.3654526049       -1.3071986160
 H          1.0344359276       -0.4617084494       -2.1615258289
 H          1.4326765710        2.0294603286       -2.1703678203
 H          2.7094387344        1.2052026751       -1.3079116350
 H          0.3031936786        2.5946120602       -0.0077370110
 H          1.9440501966        3.1962345889        0.0043253192
 H          1.3989346583        2.0342387461        2.1735691634
 H          2.6889417308        1.2080165415        1.3327285349
 H         -0.2633490278        0.3683800188        1.2873739399
 H          1.0001908262       -0.4573098691        2.1636498941
  22
        -27.43371426
 N          0.3154302636       -1.9792078840        0.0017221277
 C          1.1073481194       -0.7072603198        0.0034107221
 C          0.8172216338        0.1219013910       -1.2611182909
 C          1.6101296976        1.4398800782       -1.2630815001
 C          1.3159219369        2.2623609387        0.0035192411
 C          1.6041066000        1.4408050025        1.2721834422
 C          0.8118317437        0.1220172965        1.2671837489
 Cl        -2.9938753240       -0.9217400742       -0.0094815520
 H          0.5113269312       -2.5497126684        0.8388901480
 H          0.5159951176       -2.5507463205       -0.8342786445
 H         -0.6940147905       -1.7593499234       -0.0011440633
 H          2.1787769834       -0.9639289649        0.0057235322
 H         -0.2569513282        0.3368223827       -1.2995727770
 H          1.0290086644       -0.4717691511       -2.1592756715
 H          1.3924602519        2.0244711879       -2.1681384233
 H          2.6837431177        1.2175931868       -1.3106791472
 H          0.2618479748        2.5683335524        0.0009162060
 H          1.8920959224        3.1984348650        0.0045057202
 H          1.3811308406        2.0259683316        2.1756766039
 H          2.6775893085        1.2193035029        1.3257284908
 H         -0.2622189923        0.3359905743        1.3018828903
 H          1.0210642036       -0.4715806862        2.1660164534
  22
        -27.43308459
 N         -0.3734685770       -0.6830283049        1.0549299431
 C          0.8833190022       -0.6370078256        0.2420266382
 C          0.7086110600        0.2620784211       -1.0006139324
 C          0.6113190323        1.7500831065       -0.6259764225
 C          1.8265917731        2.1939369201        0.2046263527
 C          1.9876729743        1.3211379746        1.4602821107
 C          2.0829759366       -0.1702726097        1.0948699106
 Cl        -3.0017832036       -1.5561180441       -1.0425262947
 H         -0.5975441265        0.2473574328        1.4355779165
 H         -0.2868261043       -1.3330989050        1.8524960311
 H         -1.1781113879       -0.9827756801        0.4782959378
 H          1.0853584971       -1.6659289298       -0.1042250386
 H         -0.1832889476       -0.0512180157       -1.5590125360
 H          1.5536135877        0.1125443467       -1.6832668702
 H         -0.3080719785        1.9276090014       -0.0544053086
 H          0.5124175685        2.3702378154       -1.5284431356
 H          1.7464837969        3.2564300965        0.4757000540
 H          2.7330958064        2.1174214790       -0.4092391718
 H          1.1357724050        1.4842047651        2.1320147975
 H          2.8702984988        1.6340302695        2.0363907124
 H          2.1471489395       -0.7827329761        2.0032591840
 H          3.0154114613       -0.3525009609        0.5473341025
  22
        -27.43301779
 N         -0.3957331423       -0.6258385634       -1.0383315976
 C          0.8670074392       -0.6129402833       -0.2335660796
 C          2.0704178571       -0.1663908513       -1.0910677062
 C          2.0047958908        1.3287980836       -1.4452198032
 C          1.8758394302        2.1952343887       -0.1816448858
 C          0.6573642098        1.7739866709        0.6561697215
 C          0.7205467864        0.2803203737        1.0175439008
 Cl        -3.0293021464       -1.6140618775        0.9962832075
 H         -0.3196543375       -1.2555681496       -1.8524031875
 H         -0.6137064738        0.3164558369       -1.3938255699
 H         -1.1998515313       -0.9348774600       -0.4657721304
 H          1.0491662380       -1.6486910204        0.1032581667
 H          2.1156594453       -0.7739499836       -2.0044090586
 H          3.0022553160       -0.3724324094       -0.5510467816
 H          1.1495191479        1.5152609335       -2.1063782527
 H          2.8879662022        1.6263384629       -2.0285993540
 H          1.8191904041        3.2614593572       -0.4438418667
 H          2.7855431471        2.0919568009        0.4235118734
 H         -0.2625511162        1.9798722112        0.0949241167
 H          0.5825067991        2.3883642646        1.5648734439
 H         -0.1757188466       -0.0158223291        1.5774470700
 H          1.5649810436        0.1045772990        1.6946680163
  22
        -27.43293184
 N         -0.3855671628       -0.6474704874       -1.0491794269
 C          0.8711494168       -0.6211577002       -0.2353558924
 C          2.0775827614       -0.1691416133       -1.0857729829
 C          2.0041043453        1.3242043340       -1.4464150862
 C          1.8577460011        2.1949347921       -0.1876674847
 C          0.6354812881        1.7677798362        0.6415090523
 C          0.7081523269        0.2764998356        1.0105282529
 Cl        -3.0175719132       -1.5936938099        1.0114877334
 H         -1.1915243737       -0.9526800995       -0.4787229195
 H         -0.3016325588       -1.2857711103       -1.8564464608
 H         -0.6045988576        0.2905469949       -1.4160997912
 H          1.0587127843       -1.6538911361        0.1077120556
 H          2.1336660567       -0.7798380406       -1.9964145268
 H          3.0069451652       -0.3665721927       -0.5383173081
 H          1.1535123961        1.5018542400       -2.1159853238
 H          2.8903019901        1.6258654581       -2.0230523419
 H          1.7951811264        3.2596064304       -0.4547673307
 H          2.7629846541        2.1011227505        0.4256710693
 H         -0.2810612107        1.9629827239        0.0709931194
 H          0.5472433224        2.3859302830        1.5464378987
 H         -0.1897340615       -0.0243637468        1.5652969394
 H          1.5490149434        0.1108333882        1.6945923056
  22
        -27.43139221
 N         -0.3553410840       -1.2138719250        1.0489111522
 C          0.6120766950       -0.3010402125        0.3589909520
 C         -0.0746321579        1.0082701968       -0.0702356628
 C          0.9127762483        1.9534369642       -0.7757438678
 C          2.1307959916        2.2466985881        0.1177347755
 C          2.8206712719        0.9426120224        0.5553913385
 C          1.8266564088        0.0001865264        1.2562315164
 Cl        -3.0672795442       -1.7408869369       -1.0646371478
 H         -0.7067882528       -0.7756108080        1.9132417010
 H          0.0866674053       -2.1101212316        1.3080395492
 H         -1.1708963618       -1.4165698592        0.4460974803
 H          0.9773178666       -0.8062937056       -0.5495560321
 H         -0.4831526341        1.4979398366        0.8212478654
 H         -0.9410523017        0.7897069734       -0.7071217059
 H          0.4135744138        2.8861202590       -1.0743153245
 H          1.2515545824        1.4916114795       -1.7118484077
 H          1.8038522880        2.8007381947        1.0069960083
 H          2.8406566172        2.9107150813       -0.3954996123
 H          3.6809143450        1.1550720173        1.2059852886
 H          3.2387865888        0.4392937464       -0.3256003386
 H          1.4705856245        0.4619723379        2.1838446723
 H          2.3120371269       -0.9351670055        1.5620906892
  22
        -27.42674734
 N          0.0888612703       -1.5406011061       -0.6993431345
 C          1.3286003519       -0.9413803494       -0.1103991702
 C          2.1091451643       -0.1265192469       -1.1640173236
 C          1.3839578172        1.1759984461       -1.5413414707
 C          1.0897974746        2.0286576473       -0.2964424675
 C          0.2801710485        1.2315663526        0.7390480157
 C          0.9980921413       -0.0734693912        1.1235905500
 Cl        -2.8515067097       -0.5896126284        0.8261223276
 H         -0.4197393434       -2.1113239683       -0.0061461952
 H          0.3079975298       -2.1413101221       -1.5100110754
 H         -0.5548234825       -0.8040353683       -1.0241674887
 H          1.9688892908       -1.7782313732        0.2199202293
 H          2.2752052776       -0.7439390941       -2.0565286756
 H          3.1075156463        0.1112871491       -0.7778476660
 H          0.4433476219        0.9400506967       -2.0542324260
 H          1.9731387939        1.7489219602       -2.2717134753
 H          0.5659330029        2.9550147245       -0.5725323154
 H          2.0367496989        2.3522639413        0.1540922393
 H         -0.7109707994        1.0016111734        0.3291337624
 H          0.0861994240        1.8431745127        1.6318529604
 H          0.3856719969       -0.6532261489        1.8259263178
 H          1.9226806069        0.1647395740        1.6628661485
