21
 energy: -22.501927305360 gnorm: 0.000761952588 xtb: 6.5.1 (fef0646)
N           -1.76546313161088        0.06505023261788        0.82296878789993
C           -1.09166527389956        0.04291656944371       -0.52558931892173
C           -0.19875569239681        1.27391217075784       -0.63863872799069
C            0.97319824192247        1.22194672316210        0.34190854316554
C            1.76871709859672       -0.06702432918824        0.15816276859751
C            0.87790289047768       -1.29296164461261        0.33597940487794
C           -0.29450431213035       -1.25164313023314       -0.64456684669065
H           -2.30588539556460        0.92787659678350        0.95332008482187
H           -1.01154649532746        0.02765950801962        1.52718338073849
H           -2.38013924951141       -0.74798570370887        0.94408360915247
H           -1.87907711017253        0.07467118673185       -1.28369423138474
H           -0.78546903261211        2.18240206714914       -0.48898550421570
H            0.19434160504278        1.30903538916209       -1.65443763536040
H            0.62849387873014        1.30702361924100        1.37735699184714
H            1.62061722592739        2.07842925659008        0.15923388902137
H            2.58890194986934       -0.09979029740574        0.87413885042142
H            2.20235658405784       -0.08111594757205       -0.84189489756834
H            0.52775681800339       -1.35660517559478        1.37125068533854
H            1.45865086817859       -2.19515784298261        0.14928619914012
H           -0.94827887840216       -2.11382100792163       -0.49890398479086
H            0.09497741082152       -1.31176824043913       -1.66059204809922
