  27
        -35.32224395
 N          3.5361715370        0.0829738501       -1.1947294471
 C          2.8073330935        0.5708273930        0.0192951108
 C          3.5383576174        0.1805060236        1.2990412976
 C          1.3713652692        0.1000534920        0.0179282688
 C          1.0685514607       -1.2597893594        0.0274503823
 C         -0.2410222041       -1.7035686537        0.0245960959
 C          0.3291206816        1.0205556882        0.0017959741
 C         -1.0152291824        0.6071545014       -0.0021380376
 C         -1.3084848849       -0.7906247497        0.0104497680
 C         -2.6527055109       -1.2045490904        0.0080920835
 C         -3.6753532929       -0.2750300295       -0.0067859862
 C         -3.3915674216        1.0815995071       -0.0198910780
 C         -2.0819152892        1.5238884137       -0.0176939565
 H          4.4916922741        0.4664265612       -1.2417277738
 H          3.0432344403        0.3533016687       -2.0580514897
 H          3.6139719595       -0.9433133591       -1.1890346718
 H          2.7891936906        1.6723383722       -0.0400456617
 H          3.0246604890        0.5603814476        2.1834958111
 H          4.5581616685        0.5678915044        1.3088378548
 H          3.6001582261       -0.9033474825        1.3943152204
 H          1.8716303636       -1.9771169802        0.0378182030
 H         -0.4539723506       -2.7597577202        0.0333846793
 H          0.5503136940        2.0736623615       -0.0083602823
 H         -2.8794419537       -2.2578261357        0.0180916981
 H         -4.7020149247       -0.6074679435       -0.0081421304
 H         -4.1991233804        1.7972629664       -0.0318545491
 H         -1.8683717840        2.5798202044       -0.0281005201
  27
        -35.32199783
 N          3.2762792679        0.7930670649        1.2548928766
 C          2.9024220173        0.0296912921        0.0219777305
 C          3.3561120877        0.7564655126       -1.2391147278
 C          1.4231034516       -0.2778489876        0.0013747547
 C          0.9774759595       -1.5995413975       -0.0021522512
 C         -0.3715777225       -1.9015134753       -0.0146676424
 C          0.4853548979        0.7467494717       -0.0058365814
 C         -0.8953954197        0.4786217668       -0.0215515595
 C         -1.3357650124       -0.8800741626       -0.0250251383
 C         -2.7163427629       -1.1485876486       -0.0378622549
 C         -3.6341598263       -0.1153776895       -0.0486521658
 C         -3.2075212727        1.2033844557       -0.0470807933
 C         -1.8582736904        1.5037802254       -0.0335924904
 H          2.8301125094        1.7208138418        1.2624333322
 H          4.2947496021        0.9374815042        1.3155912986
 H          2.9755325144        0.2953854082        2.1053846344
 H          3.4354986180       -0.9351122634        0.0692307820
 H          2.8729437599        1.7299228190       -1.3198394750
 H          3.1076298587        0.1892129219       -2.1374370873
 H          4.4337430816        0.9261892843       -1.2348458673
 H          1.7003198921       -2.3984499665        0.0062870783
 H         -0.6953796966       -2.9292439057       -0.0163450465
 H          0.8164073410        1.7700306486        0.0022061621
 H         -3.0538693693       -2.1718136100       -0.0390038855
 H         -4.6903386338       -0.3366444052       -0.0584544444
 H         -3.9343368209        2.0009382728       -0.0563758897
 H         -1.5336645728        2.5309867799       -0.0325121180
  27
        -35.32191041
 N          3.2555442535        0.9695559340        1.1724994388
 C          2.9017024008        0.0322892853        0.0589140563
 C          3.3824094476        0.5640952914       -1.2862532031
 C          1.4224065424       -0.2757179258        0.0478624372
 C          0.9774091089       -1.5971289313        0.0854410547
 C         -0.3712640263       -1.9005883064        0.0681163917
 C          0.4843521795        0.7468095071       -0.0115458353
 C         -0.8960426682        0.4772388744       -0.0308205518
 C         -1.3357728660       -0.8810258540        0.0103557253
 C         -2.7159959171       -1.1509404091       -0.0090083484
 C         -3.6340234406       -0.1194665919       -0.0667687019
 C         -3.2079592932        1.1988837011       -0.1068376516
 C         -1.8590502961        1.5006189251       -0.0896970835
 H          2.9217356251        0.6117249115        2.0793706837
 H          2.8303641075        1.8953122896        1.0258919890
 H          4.2746806061        1.1052809058        1.2416162618
 H          3.4296958829       -0.9151352837        0.2612654843
 H          3.1630000221       -0.1362999754       -2.0935905537
 H          4.4579371091        0.7466657077       -1.2810140181
 H          2.8911774336        1.5069871835       -1.5258452123
 H          1.7006616673       -2.3945837625        0.1280656484
 H         -0.6944932527       -2.9280504375        0.0984563264
 H          0.8145927911        1.7697171490       -0.0445922682
 H         -3.0530662241       -2.1738568691        0.0216805098
 H         -4.6899343027       -0.3417782254       -0.0807825588
 H         -3.9349573387        1.9950718693       -0.1515348357
 H         -1.5348643501        2.5274874144       -0.1208117498
  27
        -35.31752346
 N          3.1493800442        1.4556443982       -0.7266600414
 C          2.8437614624        0.3895284399        0.2848253870
 C          3.8345019553       -0.7618453637        0.1230454080
 C          1.3914950651       -0.0474948882        0.2253931798
 C          1.0058448788       -1.3569867023        0.5201860961
 C         -0.3218675342       -1.7436500187        0.5037703436
 C          0.3954993608        0.8774022515       -0.0681833679
 C         -0.9657388235        0.5248130089       -0.0935443441
 C         -1.3357020729       -0.8222072676        0.1977423838
 C         -2.6968561469       -1.1757801433        0.1752947650
 C         -3.6630173647       -0.2337663527       -0.1236156616
 C         -3.3045378024        1.0752467605       -0.4053277580
 C         -1.9758885181        1.4568018165       -0.3918759804
 H          2.6306933713        2.3282581078       -0.5519964706
 H          2.9147574340        1.1278029836       -1.6740477140
 H          4.1512166685        1.6958788903       -0.7216408256
 H          2.9981706227        0.8364335364        1.2817859023
 H          4.8611688245       -0.3949550071        0.0873475474
 H          3.6487882362       -1.2993227685       -0.8070950048
 H          3.7758417482       -1.4751553325        0.9460307362
 H          1.7540121589       -2.0878290815        0.7740549843
 H         -0.5911521248       -2.7614494519        0.7333822070
 H          0.6594495544        1.8977758214       -0.2764762113
 H         -2.9812092926       -2.1912901695        0.3961412013
 H         -4.7037950252       -0.5187476743       -0.1365766582
 H         -4.0685768863        1.8015424559       -0.6360677532
 H         -1.7044277157        2.4762044688       -0.6102393330
