42
 energy: -62.985196824978 gnorm: 0.000449217312 xtb: 6.5.1 (fef0646)
N            2.16613522000523        0.69880126025520        0.29177557830221
C            2.80707584580489       -0.33899118400302       -0.54726842297950
C            3.42115913981692       -1.40529274527147        0.35212447325467
O            4.38291505455710       -0.72862506406454        1.15948489131903
C            5.18149035871943       -1.45359247309146        1.98605545548193
C            5.06492005930852       -2.80656670671529        2.19036723918877
C            5.92991798449685       -3.45933095078177        3.06633816762985
C            6.91422229470706       -2.79295501701637        3.77208337265060
C            7.03063164451863       -1.38636651267672        3.60198804755594
C            7.98901878467312       -0.63004130464645        4.32928971531750
C            8.10589841775570        0.72593403114478        4.07207367715664
C            7.29419394797258        1.36676397957967        3.13888511410256
C            6.33567637767206        0.66326358134539        2.46250756014382
C            6.18050174306248       -0.71741297153573        2.68376640382098
C            7.82831314288867       -3.48230569387966        4.67186634017845
C            7.83755198626597       -4.86082713286539        4.80303270705942
C            8.69648649270355       -5.50855882631190        5.69019975008625
C            9.55486086601427       -4.78523753974496        6.47112887406907
C            9.59649479610963       -3.38093382423317        6.36723743144524
C           10.47691481830256       -2.62823205619412        7.16924442103831
C           10.50993220329043       -1.26547397547391        7.06435357454036
C            9.69202103514436       -0.61087359181665        6.14354730087477
C            8.82177895159893       -1.30366937345651        5.31918031684318
C            8.74252775123086       -2.71716760588208        5.44574098162079
H            1.87073021757172        1.50359761090699       -0.27204299429778
H            2.85159964366013        1.00766363560324        0.99381719557996
H            1.35033397158800        0.31931853439079        0.78689608525122
H            3.60092026332480        0.11938313657325       -1.13700353192235
H            2.07773757934266       -0.79513710126189       -1.21439083916071
H            3.90272644065460       -2.17677265656002       -0.25574573168032
H            2.66364247142126       -1.87639909930202        0.98881466408075
H            4.31747654308066       -3.39471958402651        1.68415268403161
H            5.79929181499484       -4.52208355030450        3.18536736510920
H            8.84460347970282        1.31705916523509        4.58827317002081
H            7.42949483654368        2.42276507230678        2.96082193963506
H            5.70634571267656        1.15132595534696        1.73823991741316
H            7.17579543300249       -5.47364403093014        4.21304583643817
H            8.67135823355631       -6.58612666321191        5.75900538322896
H           10.21423057832482       -5.27489828828684        7.17284645174747
H           11.11701521138553       -3.14740898739138        7.86760886716158
H           11.17376250917999       -0.68483754048930        7.68793976152899
H            9.75700614336725        0.46395608873853        6.09589080513340
