18
 energy: -25.726500631297 gnorm: 0.000983433731 xtb: 6.5.1 (fef0646)
N            0.98574967717004        0.21452266208770        0.20044294177057
C            2.44233544880334        0.24452004683414        0.16187526809162
C            3.05395414670371        1.49177044112034        0.80912744139445
C            4.57861509194407        1.47837842703313        0.71773969220036
C            5.16858903526796        2.70651096509165        1.38577971525694
Br           7.11810183383085        2.72154084065016        1.23067867240151
Cl          -0.01668419214678       -2.22576794789114       -1.13883548109709
H            0.44294332384504       -1.11365505099740       -0.52090240872458
H            0.59297855363060        1.01407037943498       -0.28585894347334
H            0.64803679022203        0.22349489728301        1.15737644214319
H            2.74579464419728        0.18487245887392       -0.88543701828289
H            2.80398370528449       -0.65154753141442        0.67044953146615
H            2.75131549167731        1.53976200606395        1.85929191276879
H            2.66721556266080        2.38453473022378        0.30894652121747
H            4.88094779072138        1.45077162496630       -0.33173185532280
H            4.96663206182821        0.57790673176838        1.19964412008718
H            4.94854813986800        2.73051258532412        2.45176604826918
H            4.82016289449169        3.62633173354730        0.91881739983307
