26
 energy: -37.981922772815 gnorm: 0.000194403209 xtb: 6.5.1 (fef0646)
N            2.79694722265953        0.89563391491917        1.66769225696797
C            2.49489696053621        0.28445178764604        0.35814328577251
C            2.95644803026741       -1.17207223000013        0.35824337618266
C            4.45122701549795       -1.27407385724975        0.49027219032677
C            5.04130025300885       -1.42420006379916        1.73714716467808
C            6.41799890938671       -1.50205677245921        1.87843615852456
C            7.23188543371207       -1.42345321107333        0.75505786211563
O            8.59848224667633       -1.49014380884993        0.76801169721813
C            9.25517046200840       -1.67770089923670        2.00458721658630
C            6.64627790943527       -1.26399024787132       -0.50176828562793
C            5.27556679197875       -1.19174630710070       -0.62786239974003
Cl           1.68642217017931       -0.78773660825631        3.97571353208254
H            2.45322874324546        1.85567592686211        1.73083806198466
H            3.80575162453714        0.87188573352901        1.84055044123565
H            2.35455008741173        0.33442513816597        2.44000275553648
H            3.00714281610004        0.84100519525998       -0.42770167445704
H            1.41921210036402        0.32213189686325        0.19384441772431
H            2.63461818684034       -1.64649182352512       -0.56762311441102
H            2.47855789229794       -1.68251595181449        1.19531711472755
H            4.41689699436709       -1.49817525593578        2.61695422232985
H            6.83801523977966       -1.62839716879293        2.86365162421267
H           10.31565677205095       -1.71383241332590        1.76498256437143
H            8.95372898955496       -2.61780158170637        2.47514186193934
H            9.06173358659859       -0.84552801486643        2.68712682112008
H            7.29424368842938       -1.20816241620088       -1.36217813393974
H            4.83942987307373       -1.07904096118164       -1.60867101746223
