  22
        -30.65910446
 N         -1.2379415727        1.4695640504        1.2628679634
 C         -0.6758317455        2.2919436900        0.1572682400
 C         -0.1407586223        1.4265658025       -0.9813566292
 C          0.8852811627        0.4321756574       -0.5211470216
 C          0.5044803534       -0.8479022947       -0.1414545506
 C          1.4388711666       -1.7539650246        0.3201853623
 C          2.7673105837       -1.3886988365        0.4129688674
 C          3.1581867572       -0.1157546598        0.0471336241
 C          2.2220397090        0.7899287308       -0.4136213246
 Cl        -3.0862267067       -1.1075083694       -0.1858433805
 H         -1.9236094491        0.7887138194        0.8961756658
 H         -1.7059514232        2.0414532649        1.9861830851
 H         -0.4928556516        0.9202686937        1.7282864646
 H          0.1272399742        2.9264388349        0.5511928095
 H         -1.4428538843        2.9817656073       -0.2174523520
 H          0.2894561288        2.0518227154       -1.7731527009
 H         -0.9699440803        0.8872474859       -1.4535352022
 H         -0.5362074603       -1.1236694624       -0.1994920264
 H          1.1298284080       -2.7458056158        0.6116474504
 H          3.4981928776       -2.0955843074        0.7735956952
 H          4.1950766191        0.1725875248        0.1227449011
 H          2.5233274251        1.7869406531       -0.6919402819
