40
 energy: -67.173618453865 gnorm: 0.000795746905 xtb: 6.5.1 (fef0646)
N            2.05425877251553        0.72811641351063       -1.96478472171801
C            2.54375279194866       -0.66401814221443       -1.91722254009259
C            3.92987377390406       -0.77654382864709       -2.54075332758587
C            4.98552527634760       -0.05423229462080       -1.76672260375122
C            4.94392767487498        0.47594828147478       -0.51015036911823
C            6.16100256902561        1.05943722881347       -0.11118290066562
C            7.14194677473926        0.97961217416642       -1.06535541352022
C            8.48473790662223        1.44804135101183       -1.00181361807761
C            9.47078769176237        1.35123089610313       -1.95479242074073
C           10.68644648300752        1.91490190594351       -1.55552924642604
C           10.65147716449031        2.45255285128196       -0.29046846925687
C           11.69703556006629        3.09215879456131        0.42939811717233
C           11.66115048633571        3.62339459008287        1.69756461512061
C           12.88014612178959        4.17430072644101        2.10449298853829
C           13.86962870815938        4.07440846448880        1.15580844619390
C           15.21980288685907        4.52223279429837        1.23406433155547
C           16.20676233893911        4.43027920793326        0.28576387376622
C           17.43006462523826        4.98362332130417        0.70705268546667
C           17.37202309409119        5.49177201731268        1.96603659734269
S           15.81544992085828        5.30575808074338        2.67223989675326
S           13.27934185356232        3.28091721948263       -0.27797079369555
S            9.07419752043767        2.25839054280562        0.42556609473733
S            6.55182304464995        0.17047927883736       -2.48845665381937
Cl          -0.00867616172564        0.98545868521450        0.24514462398853
H            1.25194846240337        0.84518346726170       -1.29461428526012
H            1.74941174445069        0.99068418953905       -2.90396677970267
H            2.78985084511814        1.36858602455072       -1.65372588156990
H            1.84204281749269       -1.30124092612045       -2.45220118962196
H            2.56257764917475       -0.98732412427815       -0.87745107058757
H            3.91906747074105       -0.39819252234838       -3.56463886745357
H            4.20319065759954       -1.83255690114577       -2.59825211949444
H            4.08465449277630        0.45067457180865        0.13561639339512
H            6.32361407651072        1.52492195932224        0.84503000703089
H            9.31190414100286        0.88318477961708       -2.91018855672065
H           11.57342648504537        1.93399758123791       -2.16350288179395
H           10.77346757502978        3.60872470595579        2.30520586756025
H           13.04400382516364        4.63419935091345        3.06290360638572
H           16.04522069913076        3.97797278371648       -0.67656338646603
H           18.31544108444170        5.00274770022045        0.09859303014266
H           18.14576109538642        5.96770679939973        2.53342692197227
