12
 energy: -12.951742475441 gnorm: 0.000699039103 xtb: 6.5.1 (fef0646)
N            1.04089323026802       -0.04160983056306       -0.17240288544185
C            2.52177946905219       -0.05791952698080       -0.06944527682565
C            3.29147986098068        0.75529992837022       -1.06100840391641
C            3.28192570835223       -0.74000763887003       -1.16207221338723
H            0.64495802097567        0.75761808958099        0.34258370130808
H            0.63612304054270       -0.90970857469415        0.20637022390399
H            0.77019223265899        0.04057228391398       -1.16300115243521
H            2.85797927260872       -0.12983893800905        0.95498072599359
H            4.18868560038945        1.24855090758209       -0.72404284533460
H            2.74480738582365        1.32560652613998       -1.79623049947042
H            4.17263271503082       -1.28488737868087       -0.89404352255330
H            2.72954346331688       -1.20004584778930       -1.96700785184097
