  14
        -14.00296855
 N         -1.5183945935       -0.5086013277        0.1201720169
 C         -0.6427595536        0.6170444044       -0.3200474606
 C          0.7487422667        0.6004994768        0.3157884426
 C          1.6203388131       -0.5655071992       -0.1313667722
 H         -2.4604932112       -0.4361842226       -0.2922432691
 H         -1.6330092038       -0.5136746864        1.1438386651
 H         -1.1362422273       -1.4235141579       -0.1575256820
 H         -1.1509433626        1.5627594358       -0.0845080880
 H         -0.5525250631        0.5967128857       -1.4137421727
 H          0.6421975956        0.5861068933        1.4082077733
 H          1.2649517074        1.5450024039        0.0924888959
 H          2.6165858519       -0.5239569375        0.3179783397
 H          1.7548065794       -0.5693674869       -1.2153581673
 H          1.1833445172       -1.5261228124        0.1470765993
