  28
        -40.87863893
 N         -2.9869321162        1.3559001363        0.5870010402
 C         -2.1557430051        2.0400987596       -0.4393065242
 C         -0.7074838450        1.5308476659       -0.4972911682
 C         -0.6143841205        0.0503497483       -0.9310041033
 C          0.8506140198       -0.3947038023       -1.0685373669
 C          1.6342028582       -0.1743085080        0.2402212209
 C          3.0847811097       -0.5534015067        0.0566331541
 O          3.5573945802       -1.5630716847        0.8220676734
 O          3.7587636065        0.0469173544       -0.7525431633
 C          1.5154163457        1.2885390383        0.7125803530
 C          0.0467199708        1.7252484171        0.8383483014
 Cl        -3.2108116044       -2.1019145077        0.0944130108
 H         -3.9569883336        1.7127335470        0.5946841381
 H         -2.6045641939        1.4929600005        1.5347427645
 H         -3.0377889566        0.3336517140        0.4187452807
 H         -2.1561443089        3.1182513183       -0.2398630601
 H         -2.6245349702        1.9186682135       -1.4226387391
 H         -0.1665657405        2.1189762442       -1.2574203537
 H         -1.1709991312       -0.1122027640       -1.8622260695
 H         -1.1086045244       -0.5718904777       -0.1776830719
 H          1.3434638321        0.1749373638       -1.8644807889
 H          0.9211895343       -1.4455272419       -1.3767215101
 H          1.2156197056       -0.8311512053        1.0169043409
 H          4.4976282317       -1.6833759230        0.5858230901
 H          2.0366840525        1.9263453747       -0.0099794927
 H          2.0537339892        1.4222623750        1.6593954871
 H         -0.0334290520        2.7665018656        1.1748723853
 H         -0.4412140401        1.1248493566        1.6135062093
