47
 energy: -77.534357098662 gnorm: 0.000391836544 xtb: 6.5.1 (fef0646)
N            4.80776153339331        1.84993065435635        4.03072225036782
C            4.45884956672711        0.43559649225927        3.71868097323002
C            3.95395096631789        0.38947945239544        2.26924099291066
C            4.96846713289723        1.04027900549980        1.38813300157471
C            5.11349695509370        2.38975974095794        1.15739926661917
C            6.26392757955187        2.69924558142729        0.41098767971719
C            7.01832653956003        1.59514138646402        0.09592529747961
C            8.22884296569488        1.55571779444482       -0.64782522796795
C            8.95084470743556        0.46368251272298       -1.07122048308238
C           10.09956660905352        0.78688284384272       -1.80344174564892
C           11.01586751284887       -0.24751725243967       -2.36025910155233
C           10.27007630925779        2.16065545146828       -1.93281022180667
C           11.30185444072291        2.87949616532326       -2.59835442089482
C           11.53751280941156        4.24694620048430       -2.56755802243837
C           10.80349905868742        5.17654235627492       -1.81147582821813
N           10.22552906046556        5.94844257437359       -1.18952403392006
C           12.64269300560828        4.65029580573880       -3.36541240765936
C           13.01422627514519        6.00477137175939       -3.43234323450052
N           13.26638539319267        7.12333350010506       -3.44164040417192
C           13.26415365853298        3.59558110469231       -4.02216517075048
C           14.38211049540125        3.64498638472751       -4.89763628185711
C           15.00973907585514        2.60342285587248       -5.56771932146674
C           14.62047139692393        1.16758407087540       -5.49775450003212
C           16.08827560638398        3.05993284691060       -6.34905299727884
C           16.27788521007613        4.40560845520697       -6.27856566316238
S           15.14887924181098        5.17642915624027       -5.25454948051350
S           12.46995417561050        2.09753274614964       -3.62842987807595
S            8.98611096566671        3.03793026986456       -1.14883896807103
S            6.29670390920805        0.14096100977748        0.72629153075641
H            5.48599130049761        1.93479141817923        4.79283906705135
H            3.97133929572182        2.39433845536266        4.26669669729366
H            5.20720727606340        2.23048741787450        3.11729860120110
H            3.70954242502360        0.06676168234052        4.41750753043208
H            5.36126224902515       -0.17051001864454        3.80646838953861
H            2.99625508877102        0.90701856897191        2.18741198161763
H            3.80345333274412       -0.64907890801000        1.97961769988461
H            4.36304044863916        3.12765665215093        1.39291344717059
H            6.53300912800616        3.69122914644134        0.09861141478552
H            8.65209097990512       -0.54943956036631       -0.86236844361546
H           10.71136451472540       -1.23379771928243       -2.02063598457437
H           12.04321553456326       -0.07051265923058       -2.04416401982265
H           10.99427516604922       -0.23547493014517       -3.44995853130473
H           13.59526362363546        1.02410826792601       -5.84080309605406
H           14.68839827518030        0.79336633346285       -4.47568574227672
H           15.28036211121512        0.57598364102908       -6.12628635523010
H           16.70081694293899        2.40608237966834       -6.94323450361617
H           17.02370015074074        4.99471929449041       -6.77429175205799
