28
 energy: -40.299894388984 gnorm: 0.000450034214 xtb: 6.5.1 (fef0646)
N            2.74318217969265        3.01019581290858       -1.77224032524419
C            2.46180658547283        2.56623268822289       -0.40872189747597
C            2.95605873328347        1.12717586332487       -0.22244686096759
C            4.44612827277031        1.05139340250005       -0.40236864847327
C            4.99269603598154        0.69111095694517       -1.60736555221008
C            6.38935203925445        0.66412578205816       -1.79895417578188
C            6.96762888876345        0.29232097204200       -3.03074801919702
C            8.32511995850931        0.27922182097087       -3.18786962191181
C            9.16662873642374        0.63804769959407       -2.12283164761386
C            8.63684773945129        1.00221034671642       -0.91670460016896
C            7.24052007830842        1.02467110418631       -0.72185979237124
C            6.65608206645259        1.39170216764014        0.50855089054579
C            5.29922652907525        1.40501299939504        0.66208735175761
Cl           1.58530237514581        1.16260031119741       -3.71883545683926
H            2.40028208898277        3.95004410190056       -1.93566389595696
H            2.11402062065163        2.03732208699062       -2.78797742090299
H            3.74340895767337        2.98255554453476       -1.94993696396168
H            1.38010535020451        2.60370582862673       -0.26228525452156
H            2.93664633098321        3.21670086724977        0.33955708750993
H            2.45995457335965        0.49340938083772       -0.95650062246528
H            2.68044224589806        0.79175461924344        0.77843748602968
H            4.34938904370705        0.41629957939131       -2.43108231876426
H            6.31460163595409        0.01733314354353       -3.84651409011163
H            8.76199643340430       -0.00785441915713       -4.13322311594411
H           10.23730971443321        0.62297034738591       -2.26582641474588
H            9.28048671577586        1.27832083377659       -0.09322560873389
H            7.30369385223869        1.66090018725689        1.33105864316180
H            4.86263221815750        1.68359597070752        1.61121084535671
