41
 energy: -42.595885961067 gnorm: 0.000199715335 xtb: 6.5.1 (fef0646)
N            0.93008307892402        0.04311820683145       -0.06529269443149
C            2.41397552047853        0.05654944422766       -0.05637863412684
C            2.93844654336419        0.77578311966166        1.18093446191767
C            4.46649086476475        0.78776766221380        1.19978488694906
C            5.00817222854181        1.50511409042635        2.43459706069240
C            6.53462626616670        1.51964604286990        2.46160075180034
C            7.07749056295865        2.23581658422591        3.69606894836691
C            8.60395891649830        2.25135599208165        3.72546564734581
C            9.14645506627648        2.96737840650328        4.96002640539017
C           10.67299665290453        2.98422047157627        4.99163563474859
C           11.21211820129610        3.70092575649512        6.22729222715305
C           12.73849086609750        3.72095879812900        6.26435919057138
C           13.26589033177496        4.43840497993132        7.50139957889954
H            0.57451608135675       -0.43941823364741       -0.89847249599386
H            0.56876025674170        1.00429953034816       -0.06063981097730
H            0.57664116262000       -0.43704185119777        0.77087171350969
H            2.77280508376469        0.56057309205148       -0.95356337977603
H            2.78137960483808       -0.96944645595742       -0.06747121210944
H            2.58577841043361        0.27859519415015        2.08558218446147
H            2.58426649783980        1.80740655197439        1.19764908265664
H            4.84499055462345        1.28777781708788        0.30628365336532
H            4.84576393824843       -0.23582395399095        1.19124030632995
H            4.64354811589996        1.01055157628198        3.33769638643571
H            4.64458602702879        2.53498544601207        2.45168336546959
H            6.91216264591804        2.01819801840383        1.56570107134886
H            6.91095492691555        0.49397907502518        2.45057709011153
H            6.70814241938039        1.74008249603034        4.59704991235043
H            6.70963208818136        3.26458483110369        3.71198992126091
H            8.97983393113762        2.74928384674885        2.82837178822495
H            8.97830226808447        1.22485051116717        3.71320231899100
H            8.77493947207122        2.47086878306450        5.85970966606406
H            8.77644002844403        3.99540968242137        4.97484485706302
H           11.04879134493986        3.48206617232486        4.09440480991141
H           11.04729070735909        1.95764860381124        4.97925130356220
H           10.83840297129989        3.20348608931189        7.12558329996584
H           10.83987733313917        4.72820402741494        6.24057902296023
H           13.11501667120516        4.21969912405747        5.36828361000354
H           13.11352020385207        2.69494871763130        6.25321534294162
H           12.91960365524855        5.46946807666628        7.52070009410688
H           14.35321014233621        4.44144789354237        7.50871634665846
H           12.91791835704548        3.94435578298885        8.40594628582667
