  18
        -19.32384469
 N          1.8447788708       -0.0000846774        0.5610833039
 C          0.8118531505        0.0007274784       -0.5246662328
 C         -0.1166092598       -1.2298805427       -0.4337945742
 C         -1.3779492037       -0.7768490944        0.3371151944
 C         -1.3804749711        0.7752101329        0.3354222031
 C         -0.1170410547        1.2309083715       -0.4315036240
 H          1.4017228504       -0.0008954030        1.4894187598
 H          2.4508921920        0.8303210894        0.5031270750
 H          2.4509355483       -0.8300903309        0.5017404616
 H          1.3422213090        0.0016856068       -1.4926551320
 H          0.3891104336       -2.0611738988        0.0679091701
 H         -0.3827325598       -1.5850062090       -1.4355603596
 H         -1.3626882101       -1.1618845281        1.3635433795
 H         -2.2891569400       -1.1795479950       -0.1205139800
 H         -1.3714268742        1.1626716720        1.3609409127
 H         -2.2909037422        1.1737089963       -0.1274452146
 H          0.3875662739        2.0604066584        0.0742220760
 H         -0.3808887377        1.5895946213       -1.4325785370
  18
        -19.32269633
 N          2.0454365712       -0.0340445217        0.3336628955
 C          0.7750226397        0.0258515256       -0.4595542574
 C         -0.1052961326       -1.2332781026       -0.2419050381
 C         -1.4606841155       -0.7536052947        0.3257840187
 C         -1.5486419094        0.7549434699        0.0151688298
 C         -0.0906907013        1.2503868957       -0.0760482678
 H          1.8485925940       -0.1146379718        1.3401894753
 H          2.6140331850        0.8125229381        0.1919842676
 H          2.6194104402       -0.8437972130        0.0606355435
 H          1.0438560219        0.0974058646       -1.5271119065
 H          0.3902674702       -1.9307797514        0.4406027960
 H         -0.2481560774       -1.7752863682       -1.1832946726
 H         -1.5041660125       -0.9198373441        1.4082982687
 H         -2.3024590674       -1.3086680515       -0.1049784557
 H         -2.1173499519        1.2974462108        0.7803879923
 H         -2.0694673807        0.9200646932       -0.9344135327
 H          0.2422391870        1.6419707841        0.8897075815
 H          0.0193632979        2.0688112038       -0.7965320120
  18
        -19.32255443
 N          2.0572342999        0.0319710675        0.3156628495
 C          0.7719511006       -0.0247057054       -0.4535122048
 C         -0.0892076970       -1.2471652744       -0.0570201072
 C         -1.5501050563       -0.7580644471        0.0056028858
 C         -1.4742510987        0.7526907479        0.3100470022
 C         -0.1029525146        1.2352325790       -0.2195219395
 H          2.6268198306        0.8416641072        0.0334106528
 H          2.6218447485       -0.8150665506        0.1615189719
 H          1.8798453394        0.1105945273        1.3259281193
 H          1.0195117113       -0.0964189512       -1.5261493192
 H          0.2337332674       -1.6174757089        0.9204502680
 H          0.0353163438       -2.0784504919       -0.7602823336
 H         -2.1300027126       -1.2991536769        0.7635097154
 H         -2.0529410546       -0.9308354370       -0.9522510278
 H         -1.5510141331        0.9247520214        1.3897800436
 H         -2.3044844213        1.3029694895       -0.1483635615
 H          0.3848780139        1.9087773944        0.4919305366
 H         -0.2211815619        1.8049962712       -1.1478241859
  18
        -19.32149554
 N          2.1252860891        0.0032398504        0.1809773588
 C          0.7481550824       -0.0053720965       -0.4122210606
 C         -0.0797542346       -1.2271810677        0.0356211016
 C         -1.5574773366       -0.7774655287        0.0328498255
 C         -1.5560898855        0.7733133261        0.0977063370
 C         -0.0794878557        1.2314666783       -0.0026497230
 H          2.0863435671        0.0189755242        1.2088260902
 H          2.6577755481        0.8296589367       -0.1246940224
 H          2.6568455921       -0.8326250030       -0.0987765033
 H          0.8442249441       -0.0238792759       -1.5105806753
 H          0.2327087933       -1.5275442291        1.0401514974
 H          0.0890365975       -2.0929701609       -0.6146176882
 H         -2.1135320704       -1.2170585714        0.8697469988
 H         -2.0583453341       -1.1231570348       -0.8785383506
 H         -2.0173401295        1.1330548155        1.0251804068
 H         -2.1528131546        1.1966102532       -0.7184656541
 H          0.2793135825        1.5999679963        0.9631289758
 H          0.0468062644        2.0563715259       -0.7127428667
