  18
  -19.323844690000001       0.18460275643365434      !mtd6
 N          1.8447788708       -0.0000846774        0.5610833039
 C          0.8118531505        0.0007274784       -0.5246662328
 C         -0.1166092598       -1.2298805427       -0.4337945742
 C         -1.3779492037       -0.7768490944        0.3371151944
 C         -1.3804749711        0.7752101329        0.3354222031
 C         -0.1170410547        1.2309083715       -0.4315036240
 H          1.4017228504       -0.0008954030        1.4894187598
 H          2.4508921920        0.8303210894        0.5031270750
 H          2.4509355483       -0.8300903309        0.5017404616
 H          1.3422213090        0.0016856068       -1.4926551320
 H          0.3891104336       -2.0611738988        0.0679091701
 H         -0.3827325598       -1.5850062090       -1.4355603596
 H         -1.3626882101       -1.1618845281        1.3635433795
 H         -2.2891569400       -1.1795479950       -0.1205139800
 H         -1.3714268742        1.1626716720        1.3609409127
 H         -2.2909037422        1.1737089963       -0.1274452146
 H          0.3875662739        2.0604066584        0.0742220760
 H         -0.3808887377        1.5895946213       -1.4325785370
  18
  -19.323828700000000       0.18150545681821176      !mtd4
 N          1.8453120856       -0.0015909409        0.5606735142
 C          0.8117827920        0.0010816499       -0.5245361173
 C         -0.1172034462       -1.2291502490       -0.4348727085
 C         -1.3757809493       -0.7769386353        0.3404601166
 C         -1.3833480138        0.7750382024        0.3314973570
 C         -0.1163324557        1.2318063509       -0.4294746551
 H          2.4509443582       -0.8318975937        0.5000222508
 H          1.4027391698       -0.0031127902        1.4894582724
 H          2.4518068111        0.8283018149        0.5032355005
 H          1.3416503334        0.0029562729       -1.4927942981
 H          0.3891033273       -2.0621551727        0.0634110781
 H         -0.3862466670       -1.5812784131       -1.4369049749
 H         -1.3529136475       -1.1567934113        1.3686640446
 H         -2.2882658464       -1.1851198244       -0.1097353845
 H         -1.3833717502        1.1676766479        1.3551029167
 H         -2.2918195884        1.1678553566       -0.1399790025
 H          0.3875839260        2.0585979057        0.0813320380
 H         -0.3760950488        1.5951833104       -1.4299396737
  18
  -19.322696329999999        5.4763155652077657E-002 !mtd2
 N          2.0454365712       -0.0340445217        0.3336628955
 C          0.7750226397        0.0258515256       -0.4595542574
 C         -0.1052961326       -1.2332781026       -0.2419050381
 C         -1.4606841155       -0.7536052947        0.3257840187
 C         -1.5486419094        0.7549434699        0.0151688298
 C         -0.0906907013        1.2503868957       -0.0760482678
 H          1.8485925940       -0.1146379718        1.3401894753
 H          2.6140331850        0.8125229381        0.1919842676
 H          2.6194104402       -0.8437972130        0.0606355435
 H          1.0438560219        0.0974058646       -1.5271119065
 H          0.3902674702       -1.9307797514        0.4406027960
 H         -0.2481560774       -1.7752863682       -1.1832946726
 H         -1.5041660125       -0.9198373441        1.4082982687
 H         -2.3024590674       -1.3086680515       -0.1049784557
 H         -2.1173499519        1.2974462108        0.7803879923
 H         -2.0694673807        0.9200646932       -0.9344135327
 H          0.2422391870        1.6419707841        0.8897075815
 H          0.0193632979        2.0688112038       -0.7965320120
  18
  -19.322691590000002        5.4489159965418345E-002 !mtd3
 N          2.0458386428       -0.0339372701        0.3330640526
 C          0.7749208494        0.0258583442       -0.4593534273
 C         -0.1051920957       -1.2333330460       -0.2412114605
 C         -1.4611080944       -0.7536165084        0.3252679601
 C         -1.5487263764        0.7550015565        0.0148531003
 C         -0.0906736591        1.2502917643       -0.0753705989
 H          2.6141363228        0.8125365775        0.1910739434
 H          2.6198501008       -0.8437890473        0.0595989592
 H          1.8496484975       -0.1145488058        1.3397011116
 H          1.0430466937        0.0974642155       -1.5270844386
 H          0.3901557928       -1.9300856993        0.4422148365
 H         -0.2472440761       -1.7762186425       -1.1822176415
 H         -1.5056424206       -0.9200351009        1.4077124217
 H         -2.3025122938       -1.3085545134       -0.1063754629
 H         -2.1178496567        1.2974307149        0.7798159924
 H         -2.0689335292        0.9203553512       -0.9350272019
 H          0.2418999543        1.6411302212        0.8908081821
 H          0.0198499823        2.0691878423       -0.7952452000
  18
  -19.322690290000001        5.4414253307580152E-002 !mtd2
 N          2.0459223163        0.0351616113        0.3330018706
 C          0.7749292626       -0.0248039564       -0.4592829163
 C         -0.0897885342       -1.2501300294       -0.0762364105
 C         -1.5479841275       -0.7563519262        0.0139632607
 C         -1.4620265275        0.7520833826        0.3257313082
 C         -0.1059974171        1.2336124712       -0.2399146927
 H          1.8498185647        0.1147370610        1.3397537494
 H          2.6193101557        0.8456762772        0.0601944587
 H          2.6147924783       -0.8107635067        0.1901564930
 H          1.0429297475       -0.0953093320       -1.5271174769
 H          0.2429571004       -1.6412825052        0.8897789333
 H          0.0216275590       -2.0685402052       -0.7965721779
 H         -2.1168870464       -1.2999988946        0.7783366504
 H         -2.0677817704       -0.9213808575       -0.9361722780
 H         -1.5071518048        0.9175780872        1.4082152219
 H         -2.3037782970        1.3065744632       -0.1058638697
 H          0.3886270433        1.9298546384        0.4445229749
 H         -0.2481728708        1.7775070681       -1.1802865131
  18
  -19.322689830000002        5.4387772547386082E-002 !mtd4
 N          2.0460522015       -0.0338800153        0.3327436060
 C          0.7748682208        0.0258575702       -0.4592525175
 C         -0.1051352605       -1.2333666736       -0.2408475896
 C         -1.4613313872       -0.7536251050        0.3249902410
 C         -1.5487672238        0.7550295584        0.0146827387
 C         -0.0906606514        1.2502363710       -0.0750123995
 H          2.6198500682       -0.8435910190        0.0591747840
 H          1.8501719544       -0.1144771562        1.3396633741
 H          2.6142872936        0.8125758666        0.1905157793
 H          1.0426133023        0.0974968064       -1.5270761864
 H          0.3900962015       -1.9297203379        0.4430697308
 H         -0.2467580680       -1.7767201468       -1.1816489829
 H         -1.5064260578       -0.9201442164        1.4073970834
 H         -2.3025402053       -1.3084937560       -0.1071223662
 H         -2.1181079499        1.2974196739        0.7795115193
 H         -2.0686480893        0.9205093683       -0.9353540452
 H          0.2417269414        1.6406755021        0.8913920873
 H          0.0201147500        2.0693856835       -0.7945616783
  18
  -19.322683450000000        5.4021822006083277E-002 !mtd4
 N          2.0465722986        0.0349905272        0.3320296765
 C          0.7747658352       -0.0248047674       -0.4589642176
 C         -0.0897559121       -1.2499658359       -0.0751413748
 C         -1.5481149463       -0.7564391230        0.0134537324
 C         -1.4627119190        0.7521100213        0.3248868905
 C         -0.1058282779        1.2337096483       -0.2387961752
 H          2.6152072309       -0.8110033655        0.1885643712
 H          1.8514896345        0.1145569812        1.3391861882
 H          2.6196322186        0.8452923471        0.0587147056
 H          1.0416154539       -0.0954022846       -1.5270789817
 H          0.2424177915       -1.6399100071        0.8915575520
 H          0.0224234720       -2.0691392649       -0.7944909409
 H         -2.1176829483       -1.2999663296        0.7774170902
 H         -2.0669157716       -0.9218503269       -0.9371593191
 H         -1.5095479230        0.9179119608        1.4072541143
 H         -2.3038601955        1.3063961137       -0.1081419619
 H          0.3884430482        1.9287317729        0.4471323947
 H         -0.2466940576        1.7790288492       -1.1785402510
  18
  -19.322682230000002        5.3952124956931136E-002 !mtd2
 N          2.0466277843        0.0349764988        0.3319472123
 C          0.7747497591       -0.0248023857       -0.4589315290
 C         -0.0897550453       -1.2499496148       -0.0750428173
 C         -1.5481283122       -0.7564449690        0.0134124681
 C         -1.4627740648        0.7521142590        0.3248159386
 C         -0.1058162928        1.2337203892       -0.2386961308
 H          2.6196749740        0.8452885986        0.0585860339
 H          2.6153624162       -0.8111822493        0.1884003047
 H          1.8516664647        0.1145178197        1.3389100826
 H          1.0415035612       -0.0954086683       -1.5270691513
 H          0.2423681901       -1.6397902519        0.8917150956
 H          0.0224911315       -2.0691883854       -0.7943075747
 H         -2.1177541036       -1.2999616693        0.7773402375
 H         -2.0668423085       -0.9218898846       -0.9372420381
 H         -1.5097592813        0.9179433985        1.4071727848
 H         -2.3038698229        1.3063819884       -0.1083380558
 H          0.3884223061        1.9286388223        0.4473608384
 H         -0.2465683697        1.7791613610       -1.1783865922
  18
  -19.322554430000000        4.7127645291982191E-002 !mtd4
 N          2.0572342999        0.0319710675        0.3156628495
 C          0.7719511006       -0.0247057054       -0.4535122048
 C         -0.0892076970       -1.2471652744       -0.0570201072
 C         -1.5501050563       -0.7580644471        0.0056028858
 C         -1.4742510987        0.7526907479        0.3100470022
 C         -0.1029525146        1.2352325790       -0.2195219395
 H          2.6268198306        0.8416641072        0.0334106528
 H          2.6218447485       -0.8150665506        0.1615189719
 H          1.8798453394        0.1105945273        1.3259281193
 H          1.0195117113       -0.0964189512       -1.5261493192
 H          0.2337332674       -1.6174757089        0.9204502680
 H          0.0353163438       -2.0784504919       -0.7602823336
 H         -2.1300027126       -1.2991536769        0.7635097154
 H         -2.0529410546       -0.9308354370       -0.9522510278
 H         -1.5510141331        0.9247520214        1.3897800436
 H         -2.3044844213        1.3029694895       -0.1483635615
 H          0.3848780139        1.9087773944        0.4919305366
 H         -0.2211815619        1.8049962712       -1.1478241859
  18
  -19.322549620000000        4.6888378919769727E-002 !mtd5
 N          2.0576213097       -0.0306081479        0.3149747623
 C          0.7718132647        0.0257552000       -0.4533322946
 C         -0.1019876716       -1.2350350538       -0.2199122895
 C         -1.4738506606       -0.7542477656        0.3089058618
 C         -1.5509413600        0.7568019005        0.0061495406
 C         -0.0900705739        1.2472048733       -0.0553862384
 H          2.6214577451        0.8167801228        0.1612177038
 H          2.6276794373       -0.8399176654        0.0318280533
 H          1.8808501488       -0.1099033766        1.3253051598
 H          1.0186709849        0.0986280271       -1.5260549564
 H          0.3862168676       -1.9081050114        0.4917599031
 H         -0.2189896909       -1.8049326302       -1.1483225858
 H         -1.5514153405       -0.9275676271        1.3884576270
 H         -2.3032356790       -1.3047152428       -0.1507372050
 H         -2.1314496958        1.2965268262        0.7644426594
 H         -2.0535460895        0.9302800496       -0.9517167421
 H          0.2323136930        1.6164129585        0.9226552579
 H          0.0340163494        2.0794880929       -0.7574931079
  18
  -19.322536759999998        4.6254625735441923E-002 !mtd2
 N          2.0587015325       -0.0302731939        0.3132747132
 C          0.7715324658        0.0257246320       -0.4527506198
 C         -0.1017032726       -1.2351842412       -0.2178815884
 C         -1.4750312004       -0.7543221619        0.3073238303
 C         -1.5511178137        0.7569751190        0.0053849908
 C         -0.0900083987        1.2468992295       -0.0535234709
 H          1.8838440916       -0.1096596291        1.3239429380
 H          2.6221233640        0.8174014697        0.1582214183
 H          2.6283230366       -0.8392621432        0.0291210719
 H          1.0163451562        0.0986525592       -1.5259358238
 H          0.3857558577       -1.9060150284        0.4964055550
 H         -0.2163496498       -1.8075822940       -1.1450481594
 H         -1.5558785294       -0.9284402148        1.3865262747
 H         -2.3032254442       -1.3043089957       -0.1550635901
 H         -2.1327059254        1.2964480368        0.7630298310
 H         -2.0520365348        0.9312488781       -0.9532237822
 H          0.2314214002        1.6140583312        0.9255995974
 H          0.0353274091        2.0803855098       -0.7539738944
  18
  -19.322525180000000        4.5691284958862363E-002 !mtd4
 N          2.0598969707       -0.0299142318        0.3113774449
 C          0.7712075092        0.0256944175       -0.4521368771
 C         -0.1013621218       -1.2353306109       -0.2156106346
 C         -1.4763423644       -0.7544004014        0.3055366769
 C         -1.5513217189        0.7571783312        0.0045370843
 C         -0.0899444062        1.2465695056       -0.0514716619
 H          2.6289824208       -0.8389439392        0.0262734124
 H          1.8869883151       -0.1091238239        1.3225851466
 H          2.6227541753        0.8176185566        0.1551086167
 H          1.0138034877        0.0986818428       -1.5258146796
 H          0.3852736699       -1.9035349201        0.5016916423
 H         -0.2133216323       -1.8105846731       -1.1413385482
 H         -1.5606095379       -0.9292511123        1.3843515281
 H         -2.3031631464       -1.3039018897       -0.1598366563
 H         -2.1340090106        1.2963304240        0.7615678558
 H         -2.0504881729        0.9323501473       -0.9548272107
 H          0.2304480664        1.6114447992        0.9288423435
 H          0.0367719815        2.0813969203       -0.7500618388
  18
  -19.322524049999998        4.5636681792749739E-002 !mtd4
 N          2.0600913602        0.0311315495        0.3111071441
 C          0.7711498382       -0.0246603421       -0.4519959691
 C         -0.0890506414       -1.2463796260       -0.0520724540
 C         -1.5505849798       -0.7585504128        0.0035603052
 C         -1.4773880720        0.7528846157        0.3057831067
 C         -0.1021308777        1.2356136582       -0.2140744274
 H          2.6231507255       -0.8161895635        0.1542047282
 H          1.8875636232        0.1100486360        1.3224172144
 H          2.6288771823        0.8403635965        0.0259822316
 H          1.0133403995       -0.0966079503       -1.5258366060
 H          0.2313493593       -1.6112971529        0.9282460018
 H          0.0387906015       -2.0808940035       -0.7508982951
 H         -2.1331861018       -1.2989109417        0.7599020650
 H         -2.0490623565       -0.9334214996       -0.9561804907
 H         -1.5625440134        0.9268160619        1.3845965060
 H         -2.3044117440        1.3019775018       -0.1597527491
 H          0.3837258220        1.9030109389        0.5044701258
 H         -0.2139848149        1.8121606557       -1.1389756925
  18
  -19.322523159999999        4.5593721699620698E-002 !mtd6
 N          2.0596632949        0.0312484040        0.3117974842
 C          0.7712948606       -0.0246552449       -0.4522339030
 C         -0.0890752638       -1.2465091523       -0.0528631172
 C         -1.5505137603       -0.7584876904        0.0039489671
 C         -1.4769587870        0.7528761010        0.3063670417
 C         -0.1022461961        1.2355614651       -0.2148569287
 H          1.8864911878        0.1096333579        1.3228370871
 H          2.6285074362        0.8409734607        0.0273996453
 H          2.6231533258       -0.8158122897        0.1550871352
 H          1.0142965402       -0.0965456098       -1.5258938170
 H          0.2317929634       -1.6124242963        0.9269329807
 H          0.0381756184       -2.0804352994       -0.7524979693
 H         -2.1326438988       -1.2989151222        0.7606092336
 H         -2.0497921919       -0.9332046113       -0.9554083122
 H         -1.5610702751        0.9266461802        1.3852892993
 H         -2.3043575253        1.3020594489       -0.1584056248
 H          0.3839213025        1.9036755285        0.5028200520
 H         -0.2149420114        1.8112404101       -1.1401959642
  18
  -19.321495540000001        1.5368928509510948E-002 !mtd1
 N          2.1252860891        0.0032398504        0.1809773588
 C          0.7481550824       -0.0053720965       -0.4122210606
 C         -0.0797542346       -1.2271810677        0.0356211016
 C         -1.5574773366       -0.7774655287        0.0328498255
 C         -1.5560898855        0.7733133261        0.0977063370
 C         -0.0794878557        1.2314666783       -0.0026497230
 H          2.0863435671        0.0189755242        1.2088260902
 H          2.6577755481        0.8296589367       -0.1246940224
 H          2.6568455921       -0.8326250030       -0.0987765033
 H          0.8442249441       -0.0238792759       -1.5105806753
 H          0.2327087933       -1.5275442291        1.0401514974
 H          0.0890365975       -2.0929701609       -0.6146176882
 H         -2.1135320704       -1.2170585714        0.8697469988
 H         -2.0583453341       -1.1231570348       -0.8785383506
 H         -2.0173401295        1.1330548155        1.0251804068
 H         -2.1528131546        1.1966102532       -0.7184656541
 H          0.2793135825        1.5999679963        0.9631289758
 H          0.0468062644        2.0563715259       -0.7127428667
  18
  -19.321491429999998        1.5302231404719507E-002 !mtd1
 N          2.1251502955        0.0032406071        0.1812181262
 C          0.7481831269       -0.0053289409       -0.4123878081
 C         -0.0797140606       -1.2272250004        0.0352437151
 C         -1.5574601265       -0.7774598343        0.0332312827
 C         -1.5560373300        0.7733342670        0.0976547866
 C         -0.0794652161        1.2314736470       -0.0027505023
 H          2.6577273999        0.8293761047       -0.1243988332
 H          2.6568007388       -0.8328820592       -0.0983810539
 H          2.0858824769        0.0191207832        1.2090351408
 H          0.8444527059       -0.0237497260       -1.5107267050
 H          0.2331338660       -1.5281272281        1.0394992313
 H          0.0887281121       -2.0927687895       -0.6154185785
 H         -2.1129120732       -1.2167894838        0.8706779501
 H         -2.0589516731       -1.1233872005       -0.8777257443
 H         -2.0173315801        1.1333960592        1.0249842260
 H         -2.1527303021        1.1963697133       -0.7186752794
 H          0.2794167979        1.6000331952        0.9629740154
 H          0.0467807146        2.0564117007       -0.7128181994
