45
 energy: -68.502276121951 gnorm: 0.000435972577 xtb: 6.5.1 (fef0646)
N            3.42542157988053        0.91181608345843        3.39871721269356
C            2.69106049728019        1.61616882892347        2.31119578877979
C            3.61576247447373        2.66703615022198        1.68717233051613
C            4.81546769738261        2.02423488513418        1.07532730338542
C            5.06091897025893        1.72527041899704       -0.22772598000389
C            6.26619791929415        1.03033096256866       -0.43484953563794
C            6.96704024058938        0.76694407135786        0.71409039762405
C            8.19594741152098        0.08697073169003        0.88651500204478
C            8.88956832506783       -0.15927606333376        2.05140806820469
C           10.08211801542594       -0.86709706955380        1.87489846976365
C           10.98426143430639       -1.23676975028332        3.00145214553922
C           10.31781862783765       -1.17703548926432        0.54118521567338
C           11.39496584273848       -1.87857607091882       -0.05751181979931
C           11.57074607860150       -2.12083066888126       -1.40605063441259
C           12.71872123183117       -2.85052606677231       -1.70379145569136
C           13.45790103851743       -3.19173167439665       -0.58877586077975
C           14.66634950925199       -3.94310691606270       -0.48614234320900
C           15.57350955247806       -4.30931033276345       -1.46254153353312
C           15.49754325994948       -3.95056806275580       -2.90832603527024
C           16.63956849138497       -5.06749025851691       -0.93027241646503
C           16.55092663113702       -5.27130257992087        0.40979753106580
S           15.15814653267081       -4.53808819399503        1.08165638546112
S           12.70444546467134       -2.58190128191463        0.85338392441870
S            9.04270330277679       -0.57680265993360       -0.48458262550783
S            6.12966073804560        1.43940272122544        2.09804443340469
H            2.95727857913486        0.05004668213426        3.69297687131230
H            3.54134687371748        1.52741103035609        4.21109745327243
H            4.39632821040816        0.70305138326436        3.02892665753485
H            1.79022747350752        2.07739695298937        2.71605639831143
H            2.40852772912800        0.88203004539106        1.55563316263024
H            3.91293273762723        3.39342064212818        2.44644528823763
H            3.06357294062096        3.19870662328954        0.91247580450732
H            4.39761382358203        2.00026302424255       -1.02802469964154
H            6.62528387515523        0.72500424763347       -1.40016147031277
H            8.54002164475202        0.17447580153847        3.01468430344759
H           10.58845917687587       -0.85392498276949        3.93840762210093
H           11.98131245564622       -0.82591444614392        2.84806092330244
H           11.08310214361635       -2.31913393192109        3.07776096252596
H           10.87434222556576       -1.77554984557566       -2.15070699553216
H           12.98151942793090       -3.13954244218465       -2.70242851162038
H           15.26345558362020       -2.89499241271032       -3.03516711820460
H           14.72998942708280       -4.53879340428919       -3.41182580420649
H           16.45030455727979       -4.15756126614200       -3.38861172472426
H           17.44593400867519       -5.44612061101834       -1.53272400744934
H           17.22345623868217       -5.80962480450134        1.04715091623154
