  16
        -21.04801220
 N         -0.4761074378        1.3805284814        0.8897042893
 C         -1.4217932025        1.4013810523       -0.2594099205
 C         -1.4869382755        0.0529849297       -0.9740868979
 C         -1.8990847862       -1.0627053479       -0.0738549480
 C         -1.0302702878       -1.8064673530        0.5845214273
 Cl         2.4840626769       -0.1353628807       -0.1418353114
 H         -0.3513893090        2.3140214268        1.3168999558
 H          0.4564199785        1.0372730719        0.5901909175
 H         -0.8071071418        0.7402470085        1.6288341373
 H         -1.1264566334        2.1903734044       -0.9633328250
 H         -2.4207927973        1.6810236007        0.0968037316
 H         -0.5033544619       -0.1794583905       -1.4010977192
 H         -2.1666989858        0.1083842251       -1.8352653415
 H         -2.9563488992       -1.2195803497        0.0790903811
 H          0.0257604721       -1.6442179569        0.4768018428
 H         -1.3391605661       -2.5916979192        1.2498698691
