  21
  -22.601764159999998       0.19588113116933131      !mtd13
 N         -2.4304405900        0.0000007836        0.0663929108
 C         -0.9817075864        0.0000067552       -0.3223565520
 C         -0.2633427944        1.2642635617        0.1851547604
 C          1.2233497210        1.2696711544       -0.2159478982
 C          1.9385453604        0.0000056718        0.2803852797
 C          1.2233671406       -1.2696707438       -0.2159193359
 C         -0.2633476024       -1.2642695739        0.1851212984
 H         -2.9087143947        0.8303386592       -0.2964769874
 H         -2.5237900832       -0.0003848887        1.0864489880
 H         -2.9088545056       -0.8300207400       -0.2970249710
 H         -0.9286380259        0.0000203308       -1.4233437450
 H         -0.3505576138        1.3047029971        1.2751484291
 H         -0.7727744406        2.1613843092       -0.1846949562
 H          1.7227374031        2.1689192136        0.1672163890
 H          1.3061979998        1.3309596624       -1.3068569717
 H          1.9614599272        0.0000066530        1.3760034292
 H          2.9897593329        0.0000139431       -0.0357315920
 H          1.7227480921       -2.1689068497        0.1672867685
 H          1.3062403197       -1.3310041250       -1.3068269417
 H         -0.3505882271       -1.3047518488        1.2751094830
 H         -0.7727802635       -2.1613695423       -0.1847750569
  21
  -22.601763699999999       0.19578580538710072      !mtd12
 N         -2.4304043039        0.0000538229        0.0666779717
 C         -0.9817462960        0.0000909058       -0.3224396893
 C         -0.2632939430        1.2642714885        0.1851452550
 C          1.2233225611        1.2695690735       -0.2161775794
 C          1.9384766810        0.0001147009        0.2806401587
 C          1.2235259432       -1.2696735841       -0.2157215467
 C         -0.2633995221       -1.2643655975        0.1846717427
 H         -2.5236295626       -0.0020898854        1.0866816117
 H         -2.9093050415       -0.8291377170       -0.2981339965
 H         -2.9083712057        0.8312761178       -0.2945653665
 H         -0.9290131934        0.0003129993       -1.4234649000
 H         -0.3504703115        1.3046289979        1.2751540895
 H         -0.7726017933        2.1614821038       -0.1846250714
 H          1.7228693253        2.1690940376        0.1661561938
 H          1.3058059509        1.3301091294       -1.3071342163
 H          1.9606454155        0.0002980697        1.3762497304
 H          2.9898959006        0.0002139888       -0.0348908071
 H          1.7227881484       -2.1687301107        0.1680517439
 H          1.3069444058       -1.3314380050       -1.3065555080
 H         -0.3512808836       -1.3056671808        1.2745997969
 H         -0.7725883623       -2.1611837835       -0.1861985073
  21
  -22.601759070000000       0.19482891020700743      !md2
 N         -2.4306277423       -0.0000473990        0.0654913860
 C         -0.9815808773       -0.0000357105       -0.3220810371
 C         -0.2633889444        1.2641508128        0.1857630893
 C          1.2232404394        1.2698433754       -0.2156923271
 C          1.9389068265       -0.0000663411        0.2794994301
 C          1.2231447568       -1.2697950028       -0.2159180492
 C         -0.2633267224       -1.2640763711        0.1859892267
 H         -2.9084584251       -0.8306298520       -0.2973992259
 H         -2.9089120896        0.8297844089       -0.2987007602
 H         -2.5247602847        0.0007158146        1.0853914585
 H         -0.9275501444       -0.0001149493       -1.4230169565
 H         -0.3503445787        1.3041533013        1.2758049562
 H         -0.7730572306        2.1613486511       -0.1835886279
 H          1.7225847711        2.1688046827        0.1681972900
 H          1.3058208740        1.3322100498       -1.3065535565
 H          1.9636965755       -0.0001370064        1.3750657437
 H          2.9895911932       -0.0000704950       -0.0383749370
 H          1.7225144765       -2.1690094712        0.1673588911
 H          1.3054411067       -1.3316361199       -1.3068399242
 H         -0.3499426039       -1.3035974484        1.2760681763
 H         -0.7731412458       -2.1614102904       -0.1827818614
  21
  -22.601436289999999       0.13845670243414401      !input
 N         -1.8975080410       -0.0000007552        0.7434999439
 C         -1.0871692579        0.0000009386       -0.5170400419
 C         -0.2202136153        1.2722046975       -0.6392458014
 C          0.9664691010        1.2690781061        0.3406649192
 C          1.8213089309        0.0000017233        0.1832674709
 C          0.9664785588       -1.2690774269        0.3406590539
 C         -0.2202114906       -1.2722023655       -0.6392434294
 H         -2.4978197648        0.8302252284        0.7960340213
 H         -1.2911344416       -0.0001319657        1.5704361899
 H         -2.4980093322       -0.8301022504        0.7959092578
 H         -1.8080638216       -0.0000000768       -1.3543182779
 H         -0.8447215251        2.1576411576       -0.4743425930
 H          0.1565301099        1.3623772073       -1.6640325204
 H          0.5977151158        1.3376929959        1.3696495486
 H          1.5837852452        2.1653726366        0.1956664448
 H          2.6485041061       -0.0000164815        0.9050249907
 H          2.2945147163        0.0000103039       -0.8053807243
 H          0.5977726173       -1.3377626188        1.3696667581
 H          1.5838001159       -2.1653486187        0.1955649189
 H         -0.8447122026       -2.1576426323       -0.4743483522
 H          0.1565308662       -1.3623719957       -1.6640319000
  21
  -22.601428800000001       0.13736364874192453      !mtd1
 N         -1.8981326277        0.0000330321        0.7430132413
 C         -1.0870061499        0.0000031850       -0.5170376951
 C         -0.2201791526        1.2723659278       -0.6387919462
 C          0.9666833008        1.2689173404        0.3408888074
 C          1.8215249365        0.0000283112        0.1824850892
 C          0.9667711275       -1.2689268265        0.3408116837
 C         -0.2202301443       -1.2724131521       -0.6387196152
 H         -1.2922930880       -0.0001359108        1.5702546791
 H         -2.4987365820       -0.8300934036        0.7950784759
 H         -2.4984001319        0.8303150838        0.7951753707
 H         -1.8073251052        0.0000140472       -1.3547942160
 H         -0.8447730167        2.1575646919       -0.4730128442
 H          0.1561424939        1.3634140534       -1.6636643381
 H          0.5979415688        1.3366144481        1.3699392712
 H          1.5838519852        2.1654149930        0.1965539813
 H          2.6498993284        0.0000469490        0.9029055459
 H          2.2931155602        0.0000885725       -0.8069154477
 H          0.5981937885       -1.3368252799        1.3699116232
 H          1.5840217967       -2.1653333708        0.1962468810
 H         -0.8448859923       -2.1575065582       -0.4726158389
 H          0.1558737030       -1.3637368851       -1.6636438093
  21
  -22.601427869999998       0.13722853275855060      !md3
 N         -1.8982715918        0.0000944142        0.7429227571
 C         -1.0869963624        0.0000042503       -0.5170203096
 C         -0.2201470603        1.2723503834       -0.6387534090
 C          0.9666739850        1.2688868939        0.3409542915
 C          1.8215847430        0.0000731608        0.1823811259
 C          0.9669014711       -1.2689268127        0.3407660462
 C         -0.2202736457       -1.2724699662       -0.6385770024
 H         -2.4993637345       -0.8296202277        0.7945633920
 H         -2.4981315520        0.8307412657        0.7953170728
 H         -1.2925748873       -0.0007505342        1.5702729005
 H         -1.8072244404        0.0000243696       -1.3548570403
 H         -0.8447146377        2.1575874574       -0.4730814257
 H          0.1562528109        1.3633136384       -1.6636068355
 H          0.5978990776        1.3363896752        1.3700070198
 H          1.5837731954        2.1654563341        0.1967629343
 H          2.6500019320        0.0001157676        0.9027531847
 H          2.2931043549        0.0001855670       -0.8070517033
 H          0.5985433407       -1.3369437437        1.3699357835
 H          1.5841852875       -2.1652784606        0.1960014937
 H         -0.8449665399       -2.1574779572       -0.4721574159
 H          0.1556376219       -1.3640769572       -1.6635460854
  21
  -22.593668990000001        3.7300105149767479E-005 !mtd14
 N         -2.2615956840        0.1702191208        0.4101454070
 C         -1.0544581999       -0.1006763210       -0.4367604711
 C         -0.1842389095        1.1777196939       -0.5861837979
 C          0.9707555678        1.2159624490        0.4318097552
 C          1.9434284964        0.0244416953        0.2425586128
 C          1.2340124399       -1.2387983191       -0.3074628344
 C         -0.2411364640       -1.2928709891        0.1293617555
 H         -1.9800634132        0.4697063827        1.3489058184
 H         -2.8386945247       -0.6715574086        0.5055462345
 H         -2.8423731505        0.9100604635        0.0023677309
 H         -1.4186012039       -0.3872100570       -1.4374610687
 H         -0.8174192058        2.0649496922       -0.4813223951
 H          0.2313574872        1.2291371864       -1.5983285658
 H          0.5540091610        1.1903378906        1.4444738993
 H          1.5108787267        2.1685603452        0.3645654663
 H          2.4286116933       -0.2126592474        1.1966330554
 H          2.7571530745        0.3166058359       -0.4315137784
 H          1.7631468322       -2.1480152854        0.0038206809
 H          1.2782319895       -1.2356859862       -1.4022641542
 H         -0.2947829274       -1.2621282412        1.2214824308
 H         -0.7007519821       -2.2447717040       -0.1603267924
  21
  -22.593668050000002        3.7263021064543609E-005 !md5
 N         -2.2608181247        0.1704599623        0.4111526313
 C         -1.0546156831       -0.1006863568       -0.4369410408
 C         -0.1840838467        1.1773612764       -0.5870796726
 C          0.9704628722        1.2163178603        0.4313649613
 C          1.9429226527        0.0242599484        0.2439125892
 C          1.2340214620       -1.2385501653       -0.3076867996
 C         -0.2412934722       -1.2932539641        0.1284812488
 H         -2.8389183100       -0.6707247726        0.5050966530
 H         -2.8408868914        0.9120540119        0.0052628108
 H         -1.9782737180        0.4675197124        1.3504225916
 H         -1.4197400431       -0.3870230913       -1.4373385363
 H         -0.8171372600        2.0647833990       -0.4832162400
 H          0.2317591027        1.2280593067       -1.5991587119
 H          0.5533259920        1.1922701217        1.4439161174
 H          1.5109636814        2.1686350737        0.3630719365
 H          2.4262141374       -0.2132315783        1.1988290880
 H          2.7580564661        0.3161432315       -0.4285858320
 H          1.7631052021       -2.1479817793        0.0030533816
 H          1.2786810907       -1.2342709507       -1.4024635353
 H         -0.2952225429       -1.2632243961        1.2206163321
 H         -0.7007215746       -2.2450974592       -0.1617697328
  21
  -22.593665730000001        3.7171652101310884E-005 !mtd1
 N         -2.2629702608       -0.1695192560        0.4083560294
 C         -1.0541586453        0.1005202066       -0.4364192651
 C         -0.2410054141        1.2921854959        0.1309421582
 C          1.2338607575        1.2392323837       -0.3070517207
 C          1.9443112014       -0.0247220308        0.2402049627
 C          0.9714429704       -1.2155148861        0.4324932385
 C         -0.1844129237       -1.1783905360       -0.5845507477
 H         -1.9834233546       -0.4685155272        1.3478749943
 H         -2.8433279132       -0.9093641698       -0.0001738854
 H         -2.8398241087        0.6725208625        0.5019925590
 H         -1.4165205458        0.3872877233       -1.4377081073
 H         -0.2940283985        1.2599992787        1.2230625343
 H         -0.7011495927        2.2442901202       -0.1572114371
 H          1.7629704406        2.1480869080        0.0053124166
 H          1.2770767655        1.2380602910       -1.4018962994
 H          2.4329496138        0.2117467855        1.1926728500
 H          2.7555243910       -0.3173392952       -0.4366995249
 H          0.5557391732       -1.1879273860        1.4455355189
 H          1.5110704153       -2.1684707300        0.3663209527
 H         -0.8177327527       -2.0653329575       -0.4781116924
 H          0.2305198779       -1.2312395958       -1.5968818947
  21
  -22.593663240000001        3.7073837246583846E-005 !mtd8
 N         -2.2629688068        0.1695069030        0.4085323359
 C         -1.0542611122       -0.1005757755       -0.4363833572
 C         -0.1844000526        1.1782555381       -0.5847297491
 C          0.9715781254        1.2156936395        0.4322356245
 C          1.9442354019        0.0245409734        0.2407336130
 C          1.2338291643       -1.2390436186       -0.3072936452
 C         -0.2409766351       -1.2922146419        0.1308515018
 H         -2.8430909965        0.9095428929        0.0001994160
 H         -1.9832223726        0.4684021644        1.3480852861
 H         -2.8400091737       -0.6724506986        0.5021341708
 H         -1.4168009922       -0.3873588166       -1.4376094598
 H         -0.8176838330        2.0652370538       -0.4784827382
 H          0.2304974613        1.2308584433       -1.5970914948
 H          0.5559402049        1.1889333945        1.4453196757
 H          1.5114498880        2.1684798541        0.3654080041
 H          2.4318625527       -0.2123165501        1.1936237213
 H          2.7562043599        0.3168675721       -0.4353942414
 H          1.7630201058       -2.1481447343        0.0042359573
 H          1.2768867290       -1.2369390846       -1.4021301967
 H         -0.2938332848       -1.2599330760        1.2229659798
 H         -0.7010029368       -2.2444127984       -0.1571865695
  21
  -22.593656350000000        3.6804516288533147E-005 !md6
 N         -2.2654419334       -0.1681019318        0.4051154220
 C         -1.0535889606        0.1004155450       -0.4357729906
 C         -0.2406213505        1.2909145482        0.1339420761
 C          1.2334566854        1.2398659456       -0.3068108195
 C          1.9457314343       -0.0247896144        0.2366190749
 C          0.9730953867       -1.2150061164        0.4331544881
 C         -0.1850046878       -1.1797193030       -0.5814824334
 H         -2.8455640350       -0.9068831454       -0.0055150926
 H         -2.8413623650        0.6748282672        0.4972771104
 H         -1.9892123533       -0.4678547303        1.3453521884
 H         -1.4125305161        0.3878862388       -1.4380815188
 H         -0.2918133026        1.2553304474        1.2260385596
 H         -0.7018881263        2.2435759392       -0.1505593944
 H          1.7625400415        2.1484904429        0.0062480691
 H          1.2745494915        1.2407872556       -1.4017379208
 H          2.4389842845        0.2110163438        1.1868684571
 H          2.7535663142       -0.3177160482       -0.4441783298
 H          0.5596567046       -1.1856407271        1.4470824430
 H          1.5125444895       -2.1681034595        0.3674669444
 H         -0.8189661358       -2.0656446387       -0.4706013218
 H          0.2275733792       -1.2365462619       -1.5945708712
  21
  -22.593655389999999        3.6767146777616146E-005 !md7
 N         -2.2657030897       -0.1679360209        0.4047951015
 C         -1.0535245424        0.1004181498       -0.4356950531
 C         -0.2405604906        1.2907738329        0.1342802733
 C          1.2333882867        1.2398862664       -0.3068720261
 C          1.9458607236       -0.0247401932        0.2363568673
 C          0.9732983355       -1.2149834985        0.4331706763
 C         -0.1850665397       -1.1798375620       -0.5811957234
 H         -2.8415340489        0.6749708890        0.4968878826
 H         -1.9898101923       -0.4678854507        1.3451345713
 H         -2.8457914695       -0.9065877712       -0.0061173989
 H         -1.4121435305        0.3880006871       -1.4380870029
 H         -0.2914905269        1.2547599552        1.2263761802
 H         -0.7019555908        2.2435203554       -0.1497263935
 H          1.7624970699        2.1485659539        0.0059757179
 H          1.2741343540        1.2407154388       -1.4018137878
 H          2.4393383787        0.2111005067        1.1864804057
 H          2.7535329997       -0.3176382528       -0.4446453743
 H          0.5600948888       -1.1855752994        1.4471941718
 H          1.5127781630       -2.1680557019        0.3674069364
 H         -0.8190892012       -2.0656615201       -0.4698706336
 H          0.2272458650       -1.2370550390       -1.5943690172
  21
  -22.593293039999999        2.5057364967983682E-005 !mtd14
 N         -1.8424930634        0.1813316227        0.8204594634
 C         -1.0997155510       -0.0667816784       -0.4571267747
 C         -0.1950726143        1.1315488088       -0.8225989983
 C          0.9845071665        1.3204155084        0.1621908037
 C          1.5380226923       -0.0181617351        0.7154656154
 C          1.2283232381       -1.1936515498       -0.2263637411
 C         -0.2956739961       -1.3979793599       -0.3940580873
 H         -2.4941391489       -0.5840924541        1.0257678191
 H         -2.3829373168        1.0517974507        0.7691053225
 H         -1.1930695055        0.2615411505        1.6098775333
 H         -1.8653392465       -0.1680755296       -1.2463035104
 H         -0.7989329532        2.0447822003       -0.8653793891
 H          0.1939998732        0.9899857256       -1.8367985461
 H          0.6752135770        1.9676585061        0.9907863624
 H          1.7919166199        1.8673730933       -0.3393934516
 H          1.0969122317       -0.2264887068        1.6961648598
 H          2.6176142248        0.0562787661        0.8972895331
 H          1.7029416482       -2.1133970622        0.1387124463
 H          1.6823202349       -0.9996723639       -1.2045096553
 H         -0.6752394642       -1.9957833112        0.4399799075
 H         -0.4913619119       -1.9952122146       -1.2922731146
  21
  -22.593273199999999        2.4536779829012939E-005 !md8
 N         -1.8453784564       -0.1816993074        0.8185493112
 C         -1.0995607356        0.0670745568       -0.4571247078
 C         -0.2954555379        1.3981666693       -0.3909851463
 C          1.2288405601        1.1935396713       -0.2275357622
 C          1.5404923756        0.0182784254        0.7139422082
 C          0.9845634830       -1.3203830974        0.1631791822
 C         -0.1949120078       -1.1315999961       -0.8216630171
 H         -1.1975483086       -0.2632284394        1.6091402531
 H         -2.3869351908       -1.0513137461        0.7647685924
 H         -2.4965697933        0.5843503380        1.0229774707
 H         -1.8632763503        0.1693153645       -1.2480293001
 H         -0.6731310616        1.9926688314        0.4462749055
 H         -0.4934330016        1.9989597801       -1.2863331680
 H          1.7045940020        2.1132718338        0.1361226497
 H          1.6801802215        0.9992345481       -1.2068487019
 H          1.1023150123        0.2273722020        1.6958134806
 H          2.6205752522       -0.0567220208        0.8926095160
 H          0.6745121086       -1.9657320530        0.9929707978
 H          1.7909694133       -1.8695469820       -0.3376243694
 H         -0.7990591891       -2.0446775205       -0.8637258116
 H          0.1941748053       -0.9910936183       -1.8360006900
  21
  -22.593271200000000        2.4484905354032789E-005 !mtd5
 N         -1.8434791762       -0.1810073279        0.8201915061
 C         -1.0997867165        0.0666807695       -0.4569468817
 C         -0.2956504155        1.3978004468       -0.3941100144
 C          1.2284077124        1.1938268995       -0.2260991376
 C          1.5386556259        0.0181098203        0.7152550915
 C          0.9851247970       -1.3204114301        0.1619398219
 C         -0.1952045404       -1.1318186715       -0.8220690963
 H         -2.4947651373        0.5848252914        1.0251833948
 H         -1.1946431387       -0.2616415450        1.6101319277
 H         -2.3843253532       -1.0511054299        0.7682780120
 H         -1.8651145248        0.1678750147       -1.2464586206
 H         -0.6756053231        1.9960501672        0.4394311529
 H         -0.4910805321        1.9944995827       -1.2927322317
 H          1.7025384348        2.1135856463        0.1395788921
 H          1.6827654195        1.0005986442       -1.2042245632
 H          1.0981202188        0.2260945364        1.6962677992
 H          2.6183841647       -0.0562467102        0.8964471532
 H          0.6768733031       -1.9681602399        0.9905249108
 H          1.7924239036       -1.8667963082       -0.3404556796
 H         -0.7991444469       -2.0450332973       -0.8642147682
 H          0.1934055471       -0.9907163423       -1.8365007449
  21
  -22.593264900000001        2.4322216506174508E-005 !md8
 N         -1.8455570644        0.1814743333        0.8186154856
 C         -1.0995773118       -0.0670213518       -0.4570188468
 C         -0.1950487941        1.1317825503       -0.8214542751
 C          0.9849810906        1.3203566706        0.1628378432
 C          1.5403821992       -0.0182800155        0.7140804912
 C          1.2288620700       -1.1935889155       -0.2273376474
 C         -0.2954264081       -1.3980829286       -0.3913459574
 H         -1.1979355116        0.2632989183        1.6093515515
 H         -2.4968115869       -0.5845736377        1.0232327456
 H         -2.3869754598        1.0511174100        0.7650246625
 H         -1.8633376483       -0.1692047432       -1.2478898021
 H         -0.7992237643        2.0448634314       -0.8629126198
 H          0.1935834098        0.9915915623       -1.8360106729
 H          0.6758645911        1.9664002561        0.9924314171
 H          1.7915099978        1.8686552685       -0.3387156815
 H          1.1018360834       -0.2271437846        1.6958277662
 H          2.6204313232        0.0565496041        0.8930666205
 H          1.7043985668       -2.1133080512        0.1366338722
 H          1.6805520295       -0.9994684507       -1.2065268816
 H         -0.6734080078       -1.9930759767        0.4454217167
 H         -0.4930734831       -1.9983206034       -1.2871291515
  21
  -22.593264630000000        2.4315268334894635E-005 !mtd4
 N         -1.8456410962       -0.1814942707        0.8185789490
 C         -1.0995846802        0.0670547462       -0.4570222994
 C         -0.2953782678        1.3981176856       -0.3911803870
 C          1.2289118772        1.1934499149       -0.2275149071
 C          1.5402716458        0.0183311929        0.7141762534
 C          0.9851202779       -1.3203234091        0.1627628376
 C         -0.1950384716       -1.1317582991       -0.8214214956
 H         -2.3870307242       -1.0511413778        0.7649411502
 H         -2.4968435957        0.5845987208        1.0231491902
 H         -1.1979560648       -0.2632194951        1.6092713384
 H         -1.8632191551        0.1692966320       -1.2479919145
 H         -0.6730490644        1.9928204097        0.4459475067
 H         -0.4932629806        1.9987289303       -1.2866557025
 H          1.7048256995        2.1131925045        0.1358992728
 H          1.6802121402        0.9987965331       -1.2067763006
 H          1.1011435333        0.2272031403        1.6956551172
 H          2.6202209158       -0.0563132210        0.8937884055
 H          0.6761153790       -1.9665390832        0.9922743581
 H          1.7917289236       -1.8683811145       -0.3389113249
 H         -0.7992493392       -2.0448291555       -0.8626609674
 H          0.1933989992       -0.9917685030       -1.8360743786
  21
  -22.593263180000001        2.4277988020655262E-005 !mtd14
 N         -1.8465880838        0.1819074574        0.8178005256
 C         -1.0995312788       -0.0672438254       -0.4570538394
 C         -0.1948764085        1.1315269385       -0.8213065233
 C          0.9846436510        1.3203403306        0.1635098648
 C          1.5414461865       -0.0183163642        0.7133998201
 C          1.2290958418       -1.1934431965       -0.2279844170
 C         -0.2953304493       -1.3982467623       -0.3898611876
 H         -2.3880992485        1.0514340729        0.7634035896
 H         -1.1994985904        0.2641676300        1.6090174398
 H         -2.4978105485       -0.5841335927        1.0221657131
 H         -1.8625596549       -0.1699135144       -1.2485659705
 H         -0.7991231738        2.0445539035       -0.8630588943
 H          0.1941869329        0.9913569919       -1.8356964979
 H          0.6744401956        1.9650458974        0.9937411720
 H          1.7906578135        1.8702006316       -0.3371580950
 H          1.1042832785       -0.2277588957        1.6956494099
 H          2.6217065651        0.0569240446        0.8909060527
 H          1.7053852722       -2.1131478237        0.1350492820
 H          1.6793524969       -0.9989468433       -1.2077559169
 H         -0.6722994870       -1.9916916922        0.4484659000
 H         -0.4940737036       -2.0001876640       -1.2842592022
  21
  -22.592769489999998        1.4398872224281064E-005 !mtd3
 N         -2.4180684080       -0.0109522287       -0.0591544622
 C         -0.9446774603       -0.0276377349       -0.3378927323
 C         -0.2838456262        1.3267343608        0.0326566119
 C          1.2204267626        1.1939315661        0.3827660380
 C          1.8813627610        0.0377243282       -0.3898564146
 C          1.2396498274       -1.3262366751       -0.0275810607
 C         -0.2477573649       -1.1936643848        0.3878266410
 H         -2.8609043767       -0.8835660937       -0.3632077877
 H         -2.8730535313        0.7661290778       -0.5479076029
 H         -2.5898036654        0.0981403442        0.9448115283
 H         -0.8105667755       -0.1856174717       -1.4203758214
 H         -0.8289031081        1.7621461562        0.8757533641
 H         -0.4119306552        2.0358411394       -0.7920598688
 H          1.3316582668        1.0105580352        1.4573103432
 H          1.7467344771        2.1373209824        0.1917728175
 H          2.9629644579        0.0182915359       -0.2071609747
 H          1.7705233835        0.2216452447       -1.4644366950
 H          1.8088072586       -1.7960785332        0.7830044367
 H          1.3241374781       -2.0139959847       -0.8768910639
 H         -0.3191445236       -1.0207781393        1.4659535801
 H         -0.7905174681       -2.1271494086        0.2044533860
  21
  -22.592768480000000        1.4383491264743284E-005 !mtd10
 N         -2.4180243888       -0.0104794492       -0.0578700781
 C         -0.9449470646       -0.0277058211       -0.3384260417
 C         -0.2837543760        1.3267160719        0.0313842153
 C          1.2200567532        1.1937250317        0.3831901550
 C          1.8816612307        0.0378775063       -0.3892531138
 C          1.2400812936       -1.3261124712       -0.0272583002
 C         -0.2478735904       -1.1941383207        0.3866379609
 H         -2.8740393467        0.7654797270       -0.5472972846
 H         -2.5885754255        0.1006964001        0.9461501090
 H         -2.8609686399       -0.8839140990       -0.3594452642
 H         -0.8123490358       -0.1859513677       -1.4210557330
 H         -0.8294157811        1.7632160373        0.8735237251
 H         -0.4107415516        2.0350958554       -0.7941385607
 H          1.3299444142        1.0098009959        1.4577822718
 H          1.7466912067        2.1371439328        0.1932339166
 H          2.9632045899        0.0187293867       -0.2061366407
 H          1.7710344041        0.2218223926       -1.4638432035
 H          1.8085816118       -1.7954284136        0.7840813226
 H          1.3259320675       -2.0141169242       -0.8762523668
 H         -0.3207439178       -1.0227909195        1.4648957781
 H         -0.7899438386       -2.1276334288        0.2012663846
  21
  -22.592763110000000        1.4301988773554897E-005 !md8
 N         -2.4180764504       -0.0111594810       -0.0612078265
 C         -0.9441670689       -0.0272466913       -0.3373454333
 C         -0.2842281909        1.3264740622        0.0364803987
 C          1.2215432359        1.1944972851        0.3809376998
 C          1.8800317980        0.0374047799       -0.3924081847
 C          1.2401423862       -1.3259322451       -0.0253119125
 C         -0.2480872293       -1.1940384276        0.3879579580
 H         -2.5915434987        0.0987792369        0.9423581155
 H         -2.8597483672       -0.8845208117       -0.3650753511
 H         -2.8731837711        0.7650857478       -0.5510280685
 H         -0.8082931915       -0.1835343284       -1.4198364210
 H         -0.8269358002        1.7571897981        0.8834659676
 H         -0.4166328440        2.0388515233       -0.7847021145
 H          1.3369362708        1.0126033502        1.4553147569
 H          1.7469149227        2.1377191996        0.1865980340
 H          2.9623233469        0.0186741501       -0.2137420426
 H          1.7649869112        0.2194145724       -1.4668667674
 H          1.8092717287       -1.7915599344        0.7876965966
 H          1.3267491235       -2.0169000744       -0.8718184729
 H         -0.3213932578       -1.0222440304        1.4661525712
 H         -0.7902446446       -2.1274534316        0.2025397854
  21
  -22.592762149999999        1.4287467231649030E-005 !md7
 N         -2.4180803811        0.0109634693       -0.0603241713
 C         -0.9443902151        0.0273822610       -0.3375414523
 C         -0.2480213256        1.1940788639        0.3876068782
 C          1.2401133430        1.3260178561       -0.0259038864
 C          1.8805196339       -0.0375455755       -0.3915051597
 C          1.2211264361       -1.1942778651        0.3815687783
 C         -0.2841064657       -1.3265898393        0.0350212842
 H         -2.8600826987        0.8842807343       -0.3635841359
 H         -2.5909820783       -0.0993633414        0.9433827582
 H         -2.8732282809       -0.7652406776       -0.5501802312
 H         -0.8093913995        0.1842258368       -1.4200762456
 H         -0.3210757391        1.0226605071        1.4658542538
 H         -0.7902219169        2.1274521398        0.2020599828
 H          1.8090305881        1.7926948537        0.7866580635
 H          1.3265679711        2.0161729404       -0.8730836596
 H          2.9625684267       -0.0186993169       -0.2113595352
 H          1.7669008517       -0.2201182308       -1.4660123166
 H          1.3348648168       -1.0116543072        1.4559893273
 H          1.7468917962       -2.1375719302        0.1886515902
 H         -0.8276324444       -1.7590947661        0.8805930869
 H         -0.4150255113       -2.0378003614       -0.7874358988
  21
  -22.592761209999999        1.4273262508892259E-005 !md8
 N         -2.4180739054        0.0109886290       -0.0602745107
 C         -0.9443991035        0.0273711352       -0.3375506113
 C         -0.2480106300        1.1940563539        0.3876191699
 C          1.2401026495        1.3260257630       -0.0259512335
 C          1.8805480368       -0.0375354677       -0.3914454223
 C          1.2211064289       -1.1942632725        0.3816181148
 C         -0.2840907586       -1.3266027031        0.0349390553
 H         -2.5909406154       -0.0987595895        0.9434248966
 H         -2.8730874639       -0.7656477228       -0.5497150025
 H         -2.8604480044        0.8839592867       -0.3640371834
 H         -0.8094258010        0.1842463642       -1.4200847813
 H         -0.3210768726        1.0226134590        1.4658572899
 H         -0.7902410042        2.1274145086        0.2020794112
 H          1.8090310965        1.7928255894        0.7865261251
 H          1.3264606875        2.0160747792       -0.8732272041
 H          2.9625984937       -0.0186259164       -0.2113415678
 H          1.7669379136       -0.2201724350       -1.4659454921
 H          1.3347527884       -1.0116423836        1.4560488478
 H          1.7468985912       -2.1375518148        0.1887313236
 H         -0.8277275062       -1.7593123555        0.8803353085
 H         -0.4148192455       -2.0376617795       -0.7876780709
  21
  -22.592759630000000        1.4249418297039268E-005 !md6
 N         -2.4180957336        0.0109637359       -0.0603319816
 C         -0.9443975521        0.0273362857       -0.3375079130
 C         -0.2480228377        1.1941266991        0.3875528308
 C          1.2401641635        1.3259980080       -0.0257952015
 C          1.8804931062       -0.0375267701       -0.3915575541
 C          1.2211485613       -1.1942845448        0.3815398106
 C         -0.2841097457       -1.3265972386        0.0350791720
 H         -2.8731864222       -0.7653187528       -0.5501101011
 H         -2.8601304851        0.8842756895       -0.3637941550
 H         -2.5910766358       -0.0992253072        0.9432985057
 H         -0.8093997028        0.1841655915       -1.4200537176
 H         -0.3212857059        1.0228830174        1.4658107564
 H         -0.7902177851        2.1274623996        0.2018036069
 H          1.8090589750        1.7924766390        0.7868939611
 H          1.3267651488        2.0163006485       -0.8728499530
 H          2.9625919467       -0.0186766657       -0.2117240796
 H          1.7665718533       -0.2200416907       -1.4660491818
 H          1.3349899455       -1.0117324852        1.4559555319
 H          1.7469005726       -2.1375554032        0.1884769676
 H         -0.8276289873       -1.7591939214        0.8806042956
 H         -0.4149636005       -2.0377213444       -0.7874679075
