  21
        -22.49761299
 N         -1.8860466945       -0.0000270747        0.7705107121
 C         -1.0950415995       -0.0000306575       -0.5005046119
 C         -0.2305554763        1.2739803995       -0.6352166321
 C          0.9726274795        1.2703540416        0.3244683958
 C          1.8242965555        0.0000755514        0.1579896077
 C          0.9728212673       -1.2702845818        0.3244465276
 C         -0.2305055637       -1.2740478557       -0.6351408975
 H         -2.4921563719        0.8302333132        0.8351604162
 H         -1.2726102591       -0.0001676898        1.5959736950
 H         -2.4923773573       -0.8301702873        0.8350569253
 H         -1.8290385421       -0.0000627893       -1.3278134375
 H         -0.8543793290        2.1586924388       -0.4570127681
 H          0.1269897844        1.3692480152       -1.6673527067
 H          0.6210489916        1.3439278955        1.3599593502
 H          1.5892593820        2.1662396827        0.1672092288
 H          2.6605861791        0.0001303388        0.8706015146
 H          2.2896854175        0.0001148460       -0.8351140031
 H          0.6214094410       -1.3440568455        1.3599472928
 H          1.5895764685       -2.1660745668        0.1669667202
 H         -0.8543048233       -2.1587111751       -0.4566631371
 H          0.1268777532       -1.3695257919       -1.6672956497
