  21
  -22.497612990000000       0.24328330044416160      !input
 N         -1.8860466945       -0.0000270747        0.7705107121
 C         -1.0950415995       -0.0000306575       -0.5005046119
 C         -0.2305554763        1.2739803995       -0.6352166321
 C          0.9726274795        1.2703540416        0.3244683958
 C          1.8242965555        0.0000755514        0.1579896077
 C          0.9728212673       -1.2702845818        0.3244465276
 C         -0.2305055637       -1.2740478557       -0.6351408975
 H         -2.4921563719        0.8302333132        0.8351604162
 H         -1.2726102591       -0.0001676898        1.5959736950
 H         -2.4923773573       -0.8301702873        0.8350569253
 H         -1.8290385421       -0.0000627893       -1.3278134375
 H         -0.8543793290        2.1586924388       -0.4570127681
 H          0.1269897844        1.3692480152       -1.6673527067
 H          0.6210489916        1.3439278955        1.3599593502
 H          1.5892593820        2.1662396827        0.1672092288
 H          2.6605861791        0.0001303388        0.8706015146
 H          2.2896854175        0.0001148460       -0.8351140031
 H          0.6214094410       -1.3440568455        1.3599472928
 H          1.5895764685       -2.1660745668        0.1669667202
 H         -0.8543048233       -2.1587111751       -0.4566631371
 H          0.1268777532       -1.3695257919       -1.6672956497
  21
  -22.497606950000002       0.24173331463908251      !md1
 N         -1.8862566035       -0.0000863149        0.7703081179
 C         -1.0949272358       -0.0000277949       -0.5005014132
 C         -0.2305805632        1.2741130503       -0.6349800687
 C          0.9727498492        1.2703068069        0.3244861939
 C          1.8243686428        0.0000396825        0.1576523368
 C          0.9728349035       -1.2701932563        0.3246014097
 C         -0.2304846679       -1.2741489439       -0.6349947658
 H         -2.4924389314       -0.8303083478        0.8347591449
 H         -2.4925060678        0.8299683623        0.8346898713
 H         -1.2729487659       -0.0000435977        1.5959967193
 H         -1.8286152118       -0.0000245911       -1.3280574879
 H         -0.8544898727        2.1586485481       -0.4562073872
 H          0.1266007875        1.3699809328       -1.6671948928
 H          0.6212847755        1.3437014512        1.3600146595
 H          1.5893777852        2.1662243444        0.1674255035
 H          2.6611098663        0.0000682145        0.8697303931
 H          2.2892449636        0.0000356929       -0.8356667644
 H          0.6212106891       -1.3432733875        1.3600534943
 H          1.5894696779       -2.1661560554        0.1676651066
 H         -0.8543795935       -2.1586863927       -0.4562514995
 H          0.1267709946       -1.3700027534       -1.6671552236
  21
  -22.497600640000002       0.24012458754726543      !md8
 N         -1.8866916087       -0.0001330536        0.7700698547
 C         -1.0949083739       -0.0000485758       -0.5004722619
 C         -0.2306256998        1.2741967960       -0.6346895771
 C          0.9729985318        1.2702637612        0.3244641120
 C          1.8245255369        0.0000007905        0.1573245011
 C          0.9729473248       -1.2701354458        0.3247159630
 C         -0.2304234465       -1.2741570152       -0.6347812946
 H         -1.2736195266        0.0007152896        1.5959116956
 H         -2.4922385640       -0.8306962221        0.8346345321
 H         -2.4936479327        0.8296208324        0.8339758641
 H         -1.8283433836       -0.0001011845       -1.3282376304
 H         -0.8546141760        2.1585536390       -0.4553409726
 H          0.1262430022        1.3706129144       -1.6669552278
 H          0.6218548945        1.3435788868        1.3601068697
 H          1.5896015910        2.1661764342        0.1672938190
 H          2.6616422028        0.0000430795        0.8689551499
 H          2.2888157029       -0.0001274781       -0.8362623952
 H          0.6214327205       -1.3428644364        1.3602215716
 H          1.5894659240       -2.1662348188        0.1681248898
 H         -0.8542497827       -2.1587198843       -0.4559200465
 H          0.1268042884       -1.3701417441       -1.6669435984
  21
  -22.496691150000000        9.1719983403838939E-002 !md8
 N         -2.4293832316       -0.0001141897        0.1008000860
 C         -0.9873175637       -0.0000009688       -0.3074731528
 C         -0.2612214089        1.2658223743        0.1881694784
 C          1.2206692719        1.2716408499       -0.2307428003
 C          1.9449872707        0.0000652645        0.2482548864
 C          1.2207757443       -1.2715587876       -0.2307021231
 C         -0.2611351325       -1.2658034558        0.1882278827
 H         -2.5189734273        0.0006059786        1.1259141896
 H         -2.9217021766       -0.8317739568       -0.2543220447
 H         -2.9222276893        0.8307452637       -0.2557988459
 H         -0.9512963938       -0.0000279461       -1.4100002889
 H         -0.3370071786        1.3110044600        1.2796625405
 H         -0.7765609843        2.1625667610       -0.1779872133
 H          1.7249276318        2.1696910861        0.1516847965
 H          1.2913986089        1.3425787181       -1.3226483739
 H          1.9975381803        0.0000798480        1.3434887612
 H          2.9894898507        0.0001103908       -0.0927289947
 H          1.7251041246       -2.1694214832        0.1519231206
 H          1.2916380702       -1.3429132386       -1.3225844060
 H         -0.3368929127       -1.3110668838        1.2797374460
 H         -0.7764203361       -2.1625616886       -0.1779556255
  21
  -22.496689690000000        9.1578388695982491E-002 !mtd8
 N         -2.4293124735       -0.0000892338        0.1011540313
 C         -0.9873609017       -0.0000395742       -0.3075697493
 C         -0.2612173355        1.2658656053        0.1878823370
 C          1.2207297095        1.2715989231       -0.2307713058
 C          1.9448351812        0.0000408670        0.2486125349
 C          1.2208316537       -1.2714955295       -0.2308208949
 C         -0.2611111372       -1.2658759849        0.1879845011
 H         -2.9220175092        0.8310685190       -0.2548497728
 H         -2.5187149679        0.0000271210        1.1261823244
 H         -2.9219897703       -0.8313928139       -0.2546318734
 H         -0.9516056987       -0.0001024445       -1.4101038680
 H         -0.3371811510        1.3113809437        1.2793681233
 H         -0.7764951397        2.1625429650       -0.1785784732
 H          1.7250340252        2.1696359409        0.1516199221
 H          1.2917306948        1.3424522749       -1.3226665580
 H          1.9966249406        0.0000181141        1.3438841623
 H          2.9896041270        0.0000847187       -0.0915270761
 H          1.7252084086       -2.1695201412        0.1513976509
 H          1.2917345067       -1.3422225265       -1.3227576036
 H         -0.3369753789       -1.3112517082        1.2794757473
 H         -0.7763171397       -2.1626047282       -0.1783800604
  21
  -22.496685660000001        9.1188681896480550E-002 !md3
 N         -2.4293857664       -0.0000416769        0.1009098871
 C         -0.9873513582       -0.0000649515       -0.3074190861
 C         -0.2611691340        1.2658130062        0.1880998059
 C          1.2207007197        1.2716764258       -0.2307507987
 C          1.9448736643        0.0000815421        0.2483870207
 C          1.2208201869       -1.2715522307       -0.2307462583
 C         -0.2611275937       -1.2659370181        0.1880429038
 H         -2.9221641248       -0.8311122774       -0.2552380765
 H         -2.9218624234        0.8311572509       -0.2550796784
 H         -2.5188467264        0.0000214126        1.1260399418
 H         -0.9513077860       -0.0000316986       -1.4099685847
 H         -0.3369262824        1.3111295682        1.2796290489
 H         -0.7765143225        2.1625816902       -0.1780978541
 H          1.7249999121        2.1697179622        0.1516971075
 H          1.2916856307        1.3425987439       -1.3226733377
 H          1.9968683547        0.0000739351        1.3436596159
 H          2.9895812565        0.0000520217       -0.0919040616
 H          1.7252442188       -2.1694524511        0.1516856676
 H          1.2917008944       -1.3425215023       -1.3226679870
 H         -0.3368699757       -1.3112388008        1.2795827350
 H         -0.7763986440       -2.1625965655       -0.1783683891
  21
  -22.489509569999999        4.5923852588371302E-005 !md7
 N         -1.8313221589        0.1386973279        0.8419969558
 C         -1.1029451152       -0.0384844205       -0.4538602216
 C         -0.1990185902        1.1780189487       -0.7610029408
 C          0.9917956183        1.3090133731        0.2199829213
 C          1.5380649021       -0.0577742552        0.7075188885
 C          1.2220330110       -1.1879557702       -0.2867603790
 C         -0.3022300657       -1.3740194835       -0.4752895910
 H         -2.3812944591        1.0095055140        0.8466157899
 H         -1.1783525547        0.1801608006        1.6354380539
 H         -2.4842311234       -0.6386524800        1.0171258818
 H         -1.8780840793       -0.0936815042       -1.2398725852
 H         -0.8026063611        2.0935911013       -0.7450987652
 H          0.1777738345        1.0953813932       -1.7872285284
 H          0.6964753663        1.9212668813        1.0807964818
 H          1.8004848479        1.8727090932       -0.2625529305
 H          1.0989748964       -0.3087518989        1.6798624703
 H          2.6191702140        0.0025187970        0.8912148961
 H          1.6873317523       -2.1277469442        0.0399120967
 H          1.6862376610       -0.9572197550       -1.2529291704
 H         -0.6903163046       -2.0263171612        0.3141939685
 H         -0.4956670119       -1.9100436792       -1.4129527727
  21
  -22.489473329999999        4.4196060902843378E-005 !md7
 N         -1.8338751965        0.1391891204        0.8405305635
 C         -1.1028188967       -0.0387731707       -0.4537276751
 C         -0.1989688485        1.1780475446       -0.7600181278
 C          0.9919524480        1.3088825055        0.2208289526
 C          1.5401970461       -0.0579720774        0.7060344877
 C          1.2225677650       -1.1876338594       -0.2882892481
 C         -0.3020097363       -1.3744028170       -0.4725453393
 H         -1.1825308464        0.1828374080        1.6353661232
 H         -2.4856820882       -0.6389183519        1.0154077464
 H         -2.3856132685        1.0089067621        0.8429811575
 H         -1.8763323569       -0.0947937432       -1.2412901275
 H         -0.8028345689        2.0934140715       -0.7429723933
 H          0.1774547918        1.0966883674       -1.7864714153
 H          0.6962117066        1.9194286513        1.0827084323
 H          1.7997520686        1.8743999783       -0.2610815439
 H          1.1033714717       -0.3099069498        1.6791743063
 H          2.6216950154        0.0028270177        0.8872413846
 H          1.6892842343       -2.1273446127        0.0366083809
 H          1.6840013515       -0.9560316076       -1.2555819718
 H         -0.6879825543       -2.0238705024        0.3203045163
 H         -0.4977914188       -1.9140015935       -1.4076829748
  21
  -22.489472259999999        4.4146047415829815E-005 !md6
 N         -1.8337168373       -0.1390664453        0.8407550715
 C         -1.1028875961        0.0386298248       -0.4536782951
 C         -0.3021433055        1.3742293954       -0.4731258601
 C          1.2223619695        1.1878607976       -0.2878780479
 C          1.5399853314        0.0579875574        0.7062759129
 C          0.9923267452       -1.3088301454        0.2205236942
 C         -0.1989751648       -1.1781804589       -0.7599985959
 H         -2.3837386561       -1.0098325382        0.8441233302
 H         -2.4869579285        0.6381116253        1.0144178367
 H         -1.1822230235       -0.1807190125        1.6355965488
 H         -1.8765739535        0.0943962390       -1.2410920246
 H         -0.6887346353        2.0244035271        0.3188457692
 H         -0.4973878967        1.9128757140       -1.4089373497
 H          1.6886101133        2.1276513430        0.0375796506
 H          1.6844747952        0.9567645981       -1.2549390276
 H          1.1028936354        0.3095551576        1.6793764554
 H          2.6214650595       -0.0026314427        0.8876650343
 H          0.6972137132       -1.9199833890        1.0821441415
 H          1.8003287689       -1.8736287319       -0.2619462086
 H         -0.8027504605       -2.0935954532       -0.7427550560
 H          0.1771839423       -1.0968613739       -1.7865302022
  21
  -22.489470220000001        4.4050851359493950E-005 !md7
 N         -1.8341260670        0.1392302624        0.8404575518
 C         -1.1028539151       -0.0387915501       -0.4536781455
 C         -0.1989439060        1.1779901031       -0.7599642102
 C          0.9919504675        1.3088756642        0.2209171371
 C          1.5404434357       -0.0579522734        0.7059091316
 C          1.2226040727       -1.1876314253       -0.2883263809
 C         -0.3020133673       -1.3744001955       -0.4724268860
 H         -2.4864147088       -0.6386839627        1.0149709249
 H         -2.3853082062        1.0091494026        0.8430137773
 H         -1.1827808515        0.1826226062        1.6353351550
 H         -1.8763232772       -0.0948312899       -1.2412875799
 H         -0.8027623961        2.0933898476       -0.7432334800
 H          0.1776521315        1.0964217801       -1.7863390501
 H          0.6961514851        1.9192856655        1.0828777892
 H          1.7996694223        1.8745907798       -0.2609064647
 H          1.1039577635       -0.3099545226        1.6791708909
 H          2.6219823463        0.0029101242        0.8868422345
 H          1.6894365943       -2.1273344082        0.0364148077
 H          1.6838333363       -0.9559719094       -1.2557042343
 H         -0.6879806419       -2.0238934116        0.3203965249
 H         -0.4978050535       -1.9139487270       -1.4075839186
  21
  -22.489469589999999        4.4021494084457705E-005 !md6
 N         -1.8338728751       -0.1391909233        0.8406655548
 C         -1.1028918198        0.0386495740       -0.4536612961
 C         -0.3021503947        1.3742510120       -0.4729239744
 C          1.2223944862        1.1878471563       -0.2880158427
 C          1.5402593439        0.0579809266        0.7060815673
 C          0.9921621526       -1.3088319844        0.2207573226
 C         -0.1989087725       -1.1780753806       -0.7600160957
 H         -1.1825262603       -0.1817113356        1.6355516733
 H         -2.3845266853       -1.0094477512        0.8436391266
 H         -2.4866978053        0.6383923594        1.0148713483
 H         -1.8765718026        0.0944745361       -1.2410788332
 H         -0.6886479533        2.0243220462        0.3191590074
 H         -0.4975151702        1.9130156092       -1.4086299216
 H          1.6887426780        2.1276381951        0.0372885964
 H          1.6842459821        0.9566796640       -1.2551825037
 H          1.1036301202        0.3097298130        1.6793541725
 H          2.6218014785       -0.0027505366        0.8870798924
 H          0.6966652773       -1.9195454460        1.0825448219
 H          1.8000212198       -1.8741321768       -0.2613555488
 H         -0.8026276212       -2.0935365287       -0.7432906190
 H          0.1776306474       -1.0963739850       -1.7863842282
  21
  -22.489466589999999        4.3881965720089253E-005 !md5
 N         -1.8341422229       -0.1392621390        0.8404830054
 C         -1.1028632410        0.0387080645       -0.4536570336
 C         -0.3021081823        1.3743234949       -0.4725548267
 C          1.2224687119        1.1877542012       -0.2882678362
 C          1.5404336501        0.0580339365        0.7059413423
 C          0.9922010780       -1.3087988320        0.2208519752
 C         -0.1989043146       -1.1780874287       -0.7598886589
 H         -2.4869953663        0.6382803700        1.0145729050
 H         -1.1830268287       -0.1817989809        1.6354300374
 H         -2.3848107604       -1.0096551976        0.8432374155
 H         -1.8763289917        0.0946807481       -1.2412703897
 H         -0.6882716317        2.0239770934        0.3200510915
 H         -0.4978269960        1.9136495582       -1.4078819109
 H          1.6891236133        2.1275295553        0.0366496201
 H          1.6838727924        0.9562817134       -1.2555808589
 H          1.1038699141        0.3099315548        1.6792063509
 H          2.6219825626       -0.0026930263        0.8868790652
 H          0.6966383766       -1.9193337652        1.0827593072
 H          1.7999964905       -1.8742641555       -0.2611838832
 H         -0.8026819575       -2.0935031169       -0.7428638687
 H          0.1775036726       -1.0966744758       -1.7863234968
  21
  -22.488608469999999        1.7697887367029838E-005 !md6
 N         -2.2474237975       -0.1688205751        0.4713087784
 C         -1.0662263272        0.0808901156       -0.4153678990
 C         -0.2472226771        1.2989576617        0.0877924513
 C          1.2215573474        1.2368846604       -0.3698074249
 C          1.9476474161       -0.0073273426        0.2017807990
 C          0.9882015791       -1.2004820409        0.4425427628
 C         -0.1918879835       -1.1978016986       -0.5470898565
 H         -1.9474780762       -0.4358660564        1.4187529555
 H         -2.8408067768       -0.9273583639        0.1066949977
 H         -2.8361770514        0.6718683854        0.5560518708
 H         -1.4606750081        0.3310497262       -1.4154812805
 H         -0.2846371401        1.3142256768        1.1817327695
 H         -0.7182602503        2.2368915995       -0.2320914749
 H          1.7521518370        2.1571945429       -0.0919193753
 H          1.2504015483        1.2067403614       -1.4654428051
 H          2.4511104546        0.2588652146        1.1395124203
 H          2.7525475378       -0.3129263469       -0.4783645412
 H          0.5961113628       -1.1545724327        1.4650896556
 H          1.5348022009       -2.1512650175        0.3863993075
 H         -0.8188802461       -2.0848935648       -0.4003317817
 H          0.1977148817       -1.2797716171       -1.5684487513
  21
  -22.488605010000001        1.7633207613670158E-005 !mtd7
 N         -2.2479208842       -0.1685397101        0.4707308760
 C         -1.0661239823        0.0809358097       -0.4152146931
 C         -0.2471010525        1.2987230708        0.0884863120
 C          1.2214450411        1.2369435027       -0.3698146538
 C          1.9478743064       -0.0072571838        0.2013432409
 C          0.9886096016       -1.2005225840        0.4424007087
 C         -0.1920195429       -1.1979818326       -0.5466336636
 H         -2.8413908363       -0.9269238787        0.1056569394
 H         -2.8363987536        0.6722058938        0.5552202278
 H         -1.9486016387       -0.4357387515        1.4183574912
 H         -1.4599625966        0.3313332239       -1.4155065236
 H         -0.2840395568        1.3131396209        1.1824540480
 H         -0.7183284660        2.2368678423       -0.2304922203
 H          1.7520481767        2.1573222398       -0.0921719116
 H          1.2497335906        1.2067905814       -1.4654637335
 H          2.4516533343        0.2589077043        1.1389138618
 H          2.7525628543       -0.3126855004       -0.4791337769
 H          0.5970596707       -1.1548703466        1.4651682683
 H          1.5353199180       -2.1512156016        0.3858128307
 H         -0.8191704434       -2.0848191688       -0.3990184977
 H          0.1970189272       -1.2806913619       -1.5681494335
  21
  -22.488605010000001        1.7633207613670158E-005 !md7
 N         -2.2480113881        0.1684642424        0.4705662682
 C         -1.0660951919       -0.0809573740       -0.4152440130
 C         -0.1920449449        1.1979698965       -0.5465707798
 C          0.9883789198        1.2004580571        0.4426008323
 C          1.9479767698        0.0075816391        0.2009047109
 C          1.2216421765       -1.2370136285       -0.3694743510
 C         -0.2470577558       -1.2987317579        0.0885880147
 H         -2.8414504479        0.9268267674        0.1054233276
 H         -1.9488925138        0.4356529715        1.4181296936
 H         -2.8365857768       -0.6723843902        0.5549150100
 H         -1.4598092716       -0.3313754720       -1.4155849497
 H         -0.8191773224        2.0848757332       -0.3992128225
 H          0.1972438604        1.2804839475       -1.5680282820
 H          0.5967273490        1.1539896734        1.4653270162
 H          1.5347532786        2.1513566558        0.3866775151
 H          2.4527454182       -0.2581693858        1.1380628166
 H          2.7518816926        0.3133299479       -0.4803455657
 H          1.7522651427       -2.1571050167       -0.0910703052
 H          1.2501202341       -1.2077192367       -1.4651692481
 H         -0.2842300121       -1.3132597161        1.1825416525
 H         -0.7182073381       -2.2368353173       -0.2305569849
  21
  -22.488601460000002        1.7567091116644577E-005 !md5
 N         -2.2483411195       -0.1684163605        0.4701160510
 C         -1.0660138864        0.0809082267       -0.4151583529
 C         -0.2470964205        1.2985350642        0.0890592374
 C          1.2214534121        1.2372214015       -0.3693690124
 C          1.9481670238       -0.0074973664        0.2003890990
 C          0.9887605068       -1.2003638421        0.4426056929
 C         -0.1920559306       -1.1981572593       -0.5461673385
 H         -2.8369935478        0.6723797922        0.5539825154
 H         -1.9497430340       -0.4353681662        1.4179005818
 H         -2.8416692722       -0.9269002607        0.1049012102
 H         -1.4592881885        0.3314207354       -1.4156491068
 H         -0.2840279446        1.3125550052        1.1830295521
 H         -0.7184683247        2.2367276865       -0.2295530619
 H          1.7520262980        2.1573229256       -0.0907544360
 H          1.2496490857        1.2083365688       -1.4650498005
 H          2.4535695009        0.2581565037        1.1372445990
 H          2.7516258963       -0.3131809076       -0.4814348924
 H          0.5975022700       -1.1538466496        1.4654418090
 H          1.5352292535       -2.1512260573        0.3865536802
 H         -0.8192398014       -2.0849040078       -0.3981493465
 H          0.1968520512       -1.2812463263       -1.5677106005
  21
  -22.488597949999999        1.7501963330112052E-005 !mtd14
 N         -2.2489746667        0.1680080608        0.4694756931
 C         -1.0659297775       -0.0810155525       -0.4149434114
 C         -0.1922436069        1.1982637727       -0.5457306955
 C          0.9890702382        1.2004706216        0.4424585009
 C          1.9484383163        0.0075424113        0.1999438032
 C          1.2214850056       -1.2371567247       -0.3693896461
 C         -0.2468472863       -1.2983013291        0.0898530038
 H         -1.9511239659        0.4356387689        1.4174217342
 H         -2.8370603722       -0.6730720709        0.5533367149
 H         -2.8424624609        0.9259243622        0.1033970753
 H         -1.4585436256       -0.3318375505       -1.4156206809
 H         -0.8195992289        2.0848038424       -0.3971329028
 H          0.1962270880        1.2818616018       -1.5674058456
 H          0.5983775187        1.1541365223        1.4655614351
 H          1.5355378520        2.1512836502        0.3859884426
 H          2.4541202568       -0.2581142266        1.1366360124
 H          2.7517106114        0.3131089350       -0.4821471124
 H          1.7521818524       -2.1572678759       -0.0911760401
 H          1.2489985412       -1.2081742769       -1.4651143489
 H         -0.2833009509       -1.3114588385        1.1838537630
 H         -0.7182696943       -2.2367412992       -0.2278641040
  21
  -22.488597290000001        1.7489744076040374E-005 !mtd1
 N         -2.2493254458        0.1679047778        0.4689924268
 C         -1.0658494184       -0.0810202698       -0.4148754192
 C         -0.1922871824        1.1983861322       -0.5453858156
 C          0.9892151248        1.2003543280        0.4425720955
 C          1.9486550705        0.0076686180        0.1992927251
 C          1.2214621277       -1.2373129523       -0.3691796296
 C         -0.2467983158       -1.2981288241        0.0903621895
 H         -2.8371856841       -0.6734407972        0.5530310429
 H         -2.8428583250        0.9253878834        0.1024323648
 H         -1.9519072056        0.4360317014        1.4169544656
 H         -1.4579965434       -0.3319894269       -1.4156981161
 H         -0.8196788697        2.0848349361       -0.3963964110
 H          0.1960076400        1.2823335920       -1.5670974487
 H          0.5987485337        1.1534528321        1.4657337888
 H          1.5355266983        2.1512786199        0.3864393016
 H          2.4553176908       -0.2577094816        1.1355351867
 H          2.7511805665        0.3133766912       -0.4836101857
 H          1.7521513647       -2.1572984160       -0.0905417742
 H          1.2487508581       -1.2089815752       -1.4649277421
 H         -0.2830851675       -1.3108005592        1.1843741589
 H         -0.7183622965       -2.2366631749       -0.2268642311
