  14
        -20.02719887
 N         -0.0217370254       -0.0466104431       -0.8255361069
 C          0.5318931578        0.7925149751        0.2251297132
 C          2.0360002042        1.0292378830        0.0692230579
 C          2.8159801014       -0.1546702556        0.1368005065
 C          3.4585456914       -1.1799232712        0.1895065295
 Cl        -3.2047221410       -0.2187781509        0.1500239099
 H          0.4751511267       -0.9307055219       -0.8434253776
 H          0.1565198875        0.3826148429       -1.7270605198
 H         -1.9286033602       -0.1535834621       -0.2466423945
 H          0.3280068733        0.3209292193        1.1948904924
 H         -0.0141060725        1.7441513910        0.2421558388
 H          2.3889825650        1.7330266676        0.8340776758
 H          2.2252775837        1.5226909421       -0.8921549212
 H          4.0234807842       -2.0812437847        0.2371412175
