  14
  -20.027198869999999       0.23333162590462977      !mtd2
 N         -0.0217370254       -0.0466104431       -0.8255361069
 C          0.5318931578        0.7925149751        0.2251297132
 C          2.0360002042        1.0292378830        0.0692230579
 C          2.8159801014       -0.1546702556        0.1368005065
 C          3.4585456914       -1.1799232712        0.1895065295
 Cl        -3.2047221410       -0.2187781509        0.1500239099
 H          0.4751511267       -0.9307055219       -0.8434253776
 H          0.1565198875        0.3826148429       -1.7270605198
 H         -1.9286033602       -0.1535834621       -0.2466423945
 H          0.3280068733        0.3209292193        1.1948904924
 H         -0.0141060725        1.7441513910        0.2421558388
 H          2.3889825650        1.7330266676        0.8340776758
 H          2.2252775837        1.5226909421       -0.8921549212
 H          4.0234807842       -2.0812437847        0.2371412175
  14
  -20.027195849999998       0.23258714694654670      !mtd4
 N         -0.0742056526       -0.1054907191        0.8127599007
 C          0.5431278374        0.7970390411       -0.1458362726
 C          2.0324140161        1.0256770231        0.1232908028
 C          2.8212276734       -0.1512909809        0.0390781345
 C          3.4715667029       -1.1706783678       -0.0298159162
 Cl        -3.1899732330       -0.1966496663       -0.3686107629
 H          0.0426637142        0.2654063173        1.7498097176
 H          0.4248340185       -0.9882243509        0.8066664184
 H         -1.9410603169       -0.1641032838        0.1102147081
 H         -0.0058246146        1.7480627626       -0.1403602003
 H          0.4058498508        0.3861539242       -1.1532758550
 H          2.1550135434        1.4622903176        1.1219864390
 H          2.4319367405        1.7734512282       -0.5743206836
 H          4.0428038392       -2.0671934041       -0.0913541266
  14
  -20.026925240000001       0.17467146634030525      !mtd1
 N         -0.1651261683        0.5837658538        1.4130875317
 C          0.6127216593        1.4230037142        0.5116604247
 C          1.2747516839        0.6159285370       -0.6082481149
 C          2.2226835969       -0.3360285879       -0.1504298825
 C          3.0188868462       -1.1484766262        0.2652035319
 Cl        -2.5109360330       -0.5481281561       -0.6630946036
 H         -0.5096303424        1.1232215178        2.2010266140
 H          0.4317806995       -0.1384872898        1.8016307846
 H         -1.5738655037       -0.0974307387        0.1784619690
 H          1.3830677790        1.9665255733        1.0749453484
 H         -0.0494341767        2.1883666227        0.0879342816
 H          1.7623986800        1.2902015514       -1.3241313022
 H          0.4989848247        0.0921159423       -1.1802320800
 H          3.7181158015       -1.8636130966        0.6305184635
  14
  -20.026916510000000       0.17306527463369248      !mtd4
 N         -0.0768827549        0.3122901288       -1.4995658287
 C          0.6501966219        1.3058066870       -0.7209624537
 C          1.2426342589        0.7188308470        0.5629004653
 C          2.2143751654       -0.2914530266        0.3404830485
 C          3.0333623880       -1.1577276903        0.1268762430
 Cl        -2.5564435648       -0.4282617114        0.5978571292
 H          0.5382512832       -0.4650844879       -1.7138800121
 H         -0.3708495407        0.6975957903       -2.3917265730
 H         -1.5650788078       -0.1362350265       -0.2514830334
 H         -0.0333540484        2.1310435335       -0.4815147331
 H          1.4535158860        1.7437735918       -1.3269199683
 H          0.4332075439        0.2997167453        1.1728219575
 H          1.6883124059        1.5151345008        1.1734249190
 H          3.7544970363       -1.9192947063       -0.0569305316
  14
  -20.026111790000002        7.3856076003275331E-002 !mtd2
 N         -0.4011142957        1.1559598309       -0.6248026095
 C          0.5749794811        0.2071127144       -0.1105659817
 C          2.0223762368        0.6500097089       -0.3255831556
 C          2.9947359920       -0.2607044946        0.1672005790
 C          3.8153846271       -1.0441153477        0.5910917787
 Cl        -3.2306328115       -0.4066612879        0.1905219760
 H         -0.2409966377        1.3012545981       -1.6156101525
 H         -0.2575746267        2.0609690055       -0.1887057884
 H         -2.0988341221        0.2258311614       -0.1396374838
 H          0.4080330159       -0.7697022530       -0.5820972324
 H          0.3881117528        0.0446877619        0.9577231299
 H          2.1746452945        1.6291919782        0.1444854637
 H          2.1943470790        0.8167117515       -1.3961556606
 H          4.5368563885       -1.7337145398        0.9622587363
  14
  -20.025777880000000        5.1871859709441727E-002 !mtd2
 N         -0.5185968383        1.3571710842       -1.2050370378
 C          0.6949677101        0.5520640401       -1.1427933751
 C          1.2576200714        0.4424098316        0.2747627469
 C          2.4274351800       -0.3558344656        0.3835029119
 C          3.4241726356       -1.0388695837        0.4661917789
 Cl        -2.5889859979       -0.5246064873        0.6056873692
 H         -0.8192877660        1.4795276156       -2.1667902321
 H         -0.3300888343        2.2875182850       -0.8470519373
 H         -1.7665077753        0.2351917833       -0.1261991140
 H          1.4620106795        0.9628314795       -1.8129268039
 H          0.4745753046       -0.4519458008       -1.5246353351
 H          0.4834659670        0.0408365768        0.9397387916
 H          1.4690954000        1.4481312302        0.6584585950
 H          4.3000355688       -1.6400014454        0.5390854896
  14
  -20.025767599999998        5.1310643075903342E-002 !mtd5
 N         -0.5173422349        1.6708094731       -0.7098338530
 C          0.6979711019        1.2678664720       -0.0130864872
 C          1.2554376327       -0.0621998666       -0.5212475467
 C          2.4267100675       -0.5040754684        0.1498346229
 C          3.4247759329       -0.8720072112        0.7289311131
 Cl        -2.5898477997       -0.7666195131        0.2235535513
 H         -0.3327601302        1.7429229185       -1.7046798850
 H         -0.8141435425        2.5939459789       -0.4092849711
 H         -1.7665654800        0.2182893768       -0.1529061769
 H          0.4811945982        1.1848547338        1.0594530728
 H          1.4659816920        2.0468056781       -0.1011825963
 H          1.4630322008        0.0195921837       -1.5950745507
 H          0.4794982069       -0.8331982546       -0.4390179727
 H          4.3016083333       -1.1955540995        1.2391278467
  14
  -20.023377050000001        4.0887141003085542E-003 !mtd4
 N         -0.5840802442        1.7537301217        0.0879826843
 C          0.5563449704        1.7492444290       -0.8188190977
 C          1.8077842336        1.1283137252       -0.1918018899
 C          1.6680917676       -0.2368858307        0.1691170804
 C          1.5384060786       -1.4007679131        0.4776311978
 Cl        -1.7778129325       -1.3645195171        0.1312580321
 H         -1.3375499706        2.3232628998       -0.2866518065
 H         -0.3161405441        2.1827918498        0.9673540826
 H         -1.2917400627       -0.1184878216        0.1176120704
 H          0.7703077190        2.7725213473       -1.1580034316
 H          0.2817410057        1.1845689919       -1.7176196690
 H          2.0831602373        1.7013158623        0.7020183083
 H          2.6607587153        1.2273755485       -0.8761516648
 H          1.4167881831       -2.4234162723        0.7479566798
  14
  -20.023362070000001        4.0244117897269196E-003 !mtd2
 N         -0.5023199493        1.3982577058       -1.1022052502
 C          0.5146071695        1.9313848408       -0.2051585623
 C          1.8111414170        1.1170188595       -0.2307636876
 C          1.6674056559       -0.2289556414        0.1950200469
 C          1.5328670636       -1.3770814493        0.5560752628
 Cl        -1.7979244631       -1.2794859187        0.4153350441
 H         -0.1101839419        1.2866837462       -2.0310116891
 H         -1.2744216038        2.0520640810       -1.1976919187
 H         -1.2709901853       -0.2109786004       -0.1928181420
 H          0.1086541735        1.9369078612        0.8142103538
 H          0.7215743640        2.9808577623       -0.4538867202
 H          2.5744044818        1.6043582686        0.3898738491
 H          2.2175799810        1.1215202453       -1.2498122420
 H          1.4034778981       -2.3852910096        0.8730576702
  14
  -20.021154520000000        3.8920882223016719E-004 !hor
 N          0.7326345255        2.3421711821        0.9192172886
 C          0.3146025956        1.8152003981       -0.3668540865
 C          1.2937418897        0.7853445011       -0.9362949033
 C          1.4659812816       -0.3641623509       -0.1209034345
 C          1.6108304708       -1.3295339494        0.5965342847
 Cl        -2.0535903226       -1.4237942961       -0.0648680387
 H          1.6410196180        2.7833865222        0.8384423254
 H          0.8360655488        1.5899677654        1.5904799481
 H         -0.7522710859       -1.2217959917        0.0483077126
 H          0.1781292825        2.6526672218       -1.0637362164
 H         -0.6793361285        1.3661735288       -0.2542051097
 H          2.2708851421        1.2614579251       -1.0831135183
 H          0.9693799185        0.4687176879       -1.9362903227
 H          1.7577113231       -2.1741816039        1.2289872462
  14
  -20.020619210000000        2.2088754747459234E-004 !hor
 N          0.1589846197        2.4460308971       -1.8477499227
 C          0.4853725475        1.0911045776       -1.4389963768
 C          1.2115607241        1.0228037084       -0.0951678793
 C          1.5351119569       -0.2929885446        0.3326072411
 C          1.8063348776       -1.4188702050        0.6882785232
 Cl        -1.9230387290       -1.2905043941        1.0269564706
 H          1.0004683466        3.0060935089       -1.9156444859
 H         -0.4340604335        2.8926423861       -1.1575890355
 H         -0.6233894014       -1.1324662772        0.8449775374
 H          1.0949578452        0.6190270553       -2.2198310950
 H         -0.4367432051        0.4990785432       -1.3992592656
 H          0.5982970082        1.5113620573        0.6718346419
 H          2.1299188646        1.6203064500       -0.1498160025
 H          2.0626124230       -2.4058499200        0.9967028964
  14
  -20.020448300000002        1.8434290856518074E-004 !mtd3
 N          2.2946903147        1.5199995228       -1.8892445947
 C          1.6956796869        1.9975039188       -0.6564824855
 C          0.5014228596        1.1524272350       -0.2067188380
 C          0.8256827514       -0.2003531050        0.0772112265
 C          1.1283776450       -1.3511982783        0.3042552661
 Cl        -2.5399698560       -1.3247916681        1.0279351041
 H          1.6094311506        1.5221901135       -2.6354049451
 H          2.6005901740        0.5599486234       -1.7810292891
 H         -1.2692075373       -1.1220274125        0.7254361016
 H          1.4044794079        3.0478115666       -0.7896304284
 H          2.4637442488        2.0041844488        0.1260954791
 H         -0.2692527805        1.1748587552       -0.9869170895
 H          0.0338216859        1.6010690682        0.6796201638
 H          1.4122001445       -2.3592998996        0.4995282655
  14
  -20.019821530000002        9.4969223495500608E-005 !mtd5
 N         -0.1097452802        1.1794819594       -1.7308188444
 C          0.3026357345        1.7215373586       -0.4463747287
 C          1.6666910214        1.1870974979       -0.0021195747
 C          1.7010446747       -0.2113269447        0.2425673384
 C          1.7400194760       -1.4065901745        0.4365083128
 Cl        -1.9129377980       -1.0632114186        0.6791838969
 H         -1.0436979330        1.4822644825       -1.9841538657
 H         -0.1179354525        0.1667178561       -1.7051162956
 H         -0.5955582248       -1.0140211819        0.5825876072
 H         -0.4507595827        1.4945204968        0.3194417205
 H          0.3324803375        2.8154131252       -0.5255426002
 H          2.0039141294        1.7139776580        0.8999321522
 H          2.4072387888        1.4243037139       -0.7760380266
 H          1.8023949207       -2.4570488378        0.6037529293
  14
  -20.019803060000001        9.3131085031496018E-005 !hor
 N         -0.1862878490        1.9363533992        0.8025749626
 C          0.3037060447        1.6916561681       -0.5441611031
 C          1.6811092650        1.0235409781       -0.5478224113
 C          1.7064614716       -0.2782902356        0.0189497169
 C          1.7359619067       -1.3822761956        0.5170776811
 Cl        -1.8864691854       -1.2988993688       -0.1110887547
 H         -0.2079604353        1.0758436478        1.3366594352
 H         -1.1281708248        2.3121380378        0.7974705417
 H         -0.5774532671       -1.1788370264        0.0278297037
 H          0.3467811313        2.6507469321       -1.0769110845
 H         -0.4101265144        1.0700104319       -1.0989456245
 H          2.3825599744        1.6591119346        0.0063582026
 H          2.0745292146        0.9731764117       -1.5716488378
 H          1.7898140944       -2.3504742792        0.9586814686
  14
  -20.019577309999999        7.3341053835513468E-005 !mtd3
 N          0.8915142624        2.4190744315        0.8139992274
 C          0.3280426358        1.8166323497       -0.3828579334
 C          1.2451230059        0.7439980662       -0.9761407056
 C          1.4449874026       -0.3797767773       -0.1315490427
 C          1.6123521043       -1.3232004187        0.6098181403
 Cl        -2.0615266112       -1.4445456111       -0.0138388523
 H          1.1152723902        1.7069274266        1.4990452591
 H          0.2454746551        3.0684121331        1.2493492216
 H         -0.7589261442       -1.2385751734        0.0756400881
 H          0.1458906688        2.6104004396       -1.1191645174
 H         -0.6532513248        1.3802465834       -0.1581266934
 H          2.2202062299        1.1947586976       -1.1974210943
 H          0.8519319926        0.4002656408       -1.9419637811
 H          1.7774761325       -2.1485763517        1.2628750441
  14
  -20.018672349999999        2.8148569267096246E-005 !mtd3
 N         -0.6338884628        1.7346536592       -0.5762863474
 C          0.7441599056        1.6899671224       -1.0387514416
 C          1.7170441451        1.1926018056        0.0367628773
 C          1.6941423935       -0.2071571163        0.2788722584
 C          1.7211419844       -1.4014736707        0.4815597077
 Cl        -1.8853446371       -1.2894398046        0.3950282767
 H         -0.9581211659        0.8197821537       -0.2782673471
 H         -1.2647487275        2.0506128868       -1.3045463395
 H         -0.5638110323       -1.3098746157        0.4576787543
 H          1.0256011424        2.7029998733       -1.3564179108
 H          0.8273910688        1.0593756961       -1.9326654839
 H          1.5018528937        1.7194489238        0.9742952094
 H          2.7444563620        1.4764000710       -0.2282431472
 H          1.7844192782       -2.4502213526        0.6601980022
  14
  -20.018601700000001        2.6120881774158980E-005 !hor
 N          0.0780290850        2.4872118190       -1.6994035334
 C          0.2285453599        1.1374078549       -1.1785290346
 C          1.4310557863        1.0027634528       -0.2437759759
 C          1.6222405595       -0.2956801751        0.3010116071
 C          1.7971652433       -1.4031653429        0.7600109421
 Cl        -1.8910918157       -1.3055863499        0.9476572841
 H         -0.6977607265        2.5544043796       -2.3486296524
 H          0.9133849557        2.7757181425       -2.1955928728
 H         -0.5824152587       -1.1683528574        0.8216231933
 H          0.3164491861        0.4167910970       -2.0024634813
 H         -0.6859130862        0.8641135703       -0.6391065466
 H          1.3305165349        1.7285586363        0.5723439859
 H          2.3391720401        1.3033085411       -0.7808917488
 H          1.9757792651       -2.3741753827        1.1605784376
  14
  -20.018576379999999        2.5430304897287900E-005 !hor
 N          2.2567338234        1.5403705907       -1.9092344835
 C          1.6831938739        1.9932263681       -0.6526090370
 C          0.4869317884        1.1404334038       -0.2232608325
 C          0.8164234864       -0.2082474265        0.0742118711
 C          1.1226655904       -1.3556283024        0.3137193816
 Cl        -2.5479837181       -1.3361725360        1.0265955033
 H          2.5066601145        0.5602181602       -1.8519790814
 H          3.0974609103        2.0551458136       -2.1474514635
 H         -1.2780268013       -1.1315888838        0.7219954703
 H          1.3808511113        3.0425875967       -0.7663471632
 H          2.4457792210        1.9794876336        0.1362850426
 H         -0.2621045469        1.1523194482       -1.0244325465
 H         -0.0058513143        1.5891896740        0.6492947457
 H          1.4102951814       -2.3606246230        0.5191812673
  14
  -20.018218500000000        1.7413309004517026E-005 !hor
 N          1.0401763672        2.9420465388       -1.6121577071
 C          1.4432261740        1.9535628885       -0.6240059238
 C          0.7347733414        0.6126372662       -0.8156498235
 C          1.1268832233       -0.3979281913        0.1030150393
 C          1.4761620930       -1.2502859893        0.8899179469
 Cl        -2.2218626195       -1.7204233440        0.8904107544
 H          1.4831074444        3.8391541116       -1.4482081987
 H          0.0379642503        3.0900619138       -1.5830737260
 H         -0.9463286101       -1.4030326092        0.7502602647
 H          1.2585344041        2.3291816648        0.3912528206
 H          2.5272250704        1.8042284851       -0.6942461289
 H          0.9096019636        0.2607106369       -1.8396124131
 H         -0.3496084190        0.7647307675       -0.7482685599
 H          1.8035118851       -1.9938195479        1.5791426560
  14
  -20.018077770000001        1.5003973096382073E-005 !mtd1
 N          1.2119306444        2.8660149522       -1.7799772215
 C          1.7027600028        1.6603004162       -1.1308897031
 C          0.5823661475        0.8481035608       -0.4813937984
 C          1.0198829366       -0.3173519058        0.2035224861
 C          1.4097619310       -1.3068491764        0.7836707535
 Cl        -2.2974071201       -1.6460388649        1.0803227621
 H          0.5183269625        2.6379798323       -2.4827227884
 H          1.9574895420        3.3726633517       -2.2443001216
 H         -1.0285818766       -1.3414207138        0.8688508766
 H          2.4359350839        1.9437368570       -0.3652374106
 H          2.2474608170        1.0335764911       -1.8482718266
 H         -0.1495748442        0.5649669070       -1.2476467696
 H          0.0317095179        1.4938397916        0.2138307151
 H          1.7714504689       -2.1714172499        1.2903204232
  14
  -20.018050219999999        1.4572872773673173E-005 !hor
 N          1.1704885060        2.8078794238       -1.8669492333
 C          1.6803240234        1.6260155317       -1.1893050163
 C          0.5881195138        0.8673295685       -0.4355191808
 C          1.0312697538       -0.3187701786        0.2091657659
 C          1.4225380240       -1.3272505745        0.7546671545
 Cl        -2.2879647176       -1.6304679687        1.0948321914
 H          1.9108900825        3.3261132189       -2.3264359789
 H          0.7263779257        3.4360483394       -1.2071202843
 H         -1.0188751571       -1.3363139184        0.8706686780
 H          2.4877711641        1.8994462112       -0.4970717032
 H          2.1367310653        0.9611873308       -1.9322697438
 H         -0.2211791881        0.6219584206       -1.1340077023
 H          0.1315248693        1.5337704940        0.3067091046
 H          1.7856135230       -2.2086120866        1.2304497161
  14
  -20.017714080000001        1.0210944724418192E-005 !hor
 N          2.0703486833        1.5712552954       -1.8697741907
 C          1.4011319043        2.0078328039       -0.6579172628
 C          0.2707843510        1.0690980532       -0.2293412161
 C          0.6986934695       -0.2485996227        0.0789071580
 C          1.0796084380       -1.3702417713        0.3300673515
 Cl        -2.1101775711       -1.2824749785        1.0011494279
 H          1.4068756638        1.5057782972       -2.6331476463
 H          2.4505087037        0.6414023133       -1.7396007141
 H         -3.3654115841       -1.5077222207        1.3441955201
 H          1.0258887874        3.0284405819       -0.8101492981
 H          2.1446513502        2.0866753675        0.1441623580
 H         -0.4781597949        1.0183127942       -1.0290858702
 H         -0.2568718652        1.4842911304        0.6393824138
 H          1.4110465425       -2.3574150676        0.5524288165
