19
 energy: -24.307876894245 gnorm: 0.000660188988 xtb: 6.5.1 (fef0646)
N            2.01024967909860        0.06310842320159        0.20380385862622
C            0.85332375607952        0.17426593206433       -0.68996531640869
C            0.00721143654945       -1.10942910654382       -0.62577829438021
C           -1.19596097078536       -0.75119376626064        0.24385432354343
C           -1.46974755761119        0.70023274265380       -0.13236180898810
C           -0.06941176609368        1.30880563309477       -0.20550301292137
Cl           1.32020541970765       -0.45818067575914        2.99834820948534
H            2.62326519730909       -0.69215940461397       -0.08479397493757
H            1.59326079429640       -0.22077466968132        1.65982977767690
H            2.54039739694016        0.92815899286303        0.21894661957453
H            1.18629423165417        0.35878863666481       -1.72240153739171
H            0.57828932567188       -1.93951701381393       -0.21404433742231
H           -0.32485288759693       -1.38278544955388       -1.62808797322505
H           -0.92231334412460       -0.81379203130274        1.29583790675522
H           -2.04819270481119       -1.40308598196299        0.06123878662674
H           -2.10030656215022        1.21099791556948        0.59260949664192
H           -1.95614736926348        0.74887815776006       -1.10857062661305
H            0.24632821366928        1.61188071054000        0.79260502943596
H           -0.03013228853957        2.17805095508060       -0.86074712607824
