25
 energy: -30.681618169728 gnorm: 0.000958674794 xtb: 6.5.1 (fef0646)
N            1.25316931697129       -0.21619231807178       -0.23740341466903
C            2.69279751982902       -0.09629957222220        0.07552687194748
C            3.09696280815519        1.32282816903189        0.48119283056592
C            2.63099936748684        1.66111823287357        1.89872088802281
C            3.12417607914462        3.04881120855857        2.30064588292166
C            2.61996138977282        4.09844132050317        1.31504534914103
C            3.07952399250968        3.75962323420697       -0.09987177397057
C            2.57014259552004        2.37580587337979       -0.49603923680343
Cl          -1.01919583006426        1.07247125418674        1.36789749776743
H            0.97143414389934       -1.19658875420317       -0.30167879968167
H            1.03545236885262        0.25108092644407       -1.11960541207220
H            0.63076337027907        0.23095479137392        0.47721962535524
H            3.25999306693923       -0.39695697608635       -0.80670539494023
H            2.93056994234978       -0.77289346806357        0.89636463403939
H            4.19140024026136        1.36081312906612        0.47149521299847
H            3.01379282353134        0.92284381385840        2.60613315910276
H            1.54090202657274        1.64387595022289        1.95031893645020
H            4.21696673355076        3.06097513387755        2.31336778290883
H            2.77516631538556        3.28871750965484        3.30741839146711
H            2.98104790174422        5.08818676054448        1.60320454726203
H            1.52731625175888        4.11985486680843        1.34593124456158
H            4.17100583469733        3.77998249581221       -0.13871287482597
H            2.70434046716540        4.50974018742097       -0.79893198429226
H            2.89320061097693        2.14787558115456       -1.51328118768277
H            1.47955066271019        2.39920064966807       -0.45818277557368
