40
 energy: -55.249131360871 gnorm: 0.000609774460 xtb: 6.5.1 (fef0646)
N           10.99273419170084        4.67278161992675        0.43091803783585
C           12.40272755541197        4.87972138454420        0.74480086341172
C           13.26116278806415        3.61545350273234        0.62762157719305
C           13.41574161077682        3.14998381914344       -0.82835438187620
C           13.00270001103620        1.68545531996654       -1.03921126464843
N           11.68834183937527        1.41048970757972       -0.50993447356166
C           11.47876458259293        0.27332624697011        0.38423141617864
C            9.87759434616597        0.22079759425389        0.49818504888424
C            9.80227746985500        0.95091588348035        1.78583549141303
C           10.27834436098437        0.26705170491641        2.87712239918537
C           11.71070668810330        0.45325191274812        2.94390166648846
C           12.23794332645683        0.43152650078584        1.70068313113500
C           10.54479257877396        1.66364943079930       -1.23925315566811
C            9.44025788148137        0.98758754852152       -0.70475856877601
C            8.18625151919722        1.13001452743813       -1.24938351385829
C            8.02801555403769        1.95256903756835       -2.35936418358561
C            9.11812318044791        2.61344387251660       -2.89636432443208
C           10.38715628871153        2.48099077533121       -2.34911611046053
Cl           9.58766643228759        7.22913882491402        0.44099748555701
H           10.24629589468216        6.01811393288698        0.44349537393048
H           10.55973881691771        4.05002559539910        1.10533112628652
H           10.87406300446481        4.26484565992749       -0.49232281510323
H           12.45633762745967        5.26801416583896        1.76407740663950
H           12.78251496883281        5.65067969070585        0.07011587070559
H           12.79104172276416        2.82498288896921        1.21747159696290
H           14.23868132656997        3.81614904488963        1.06683334328587
H           14.45027712263550        3.25815323995351       -1.15634264199982
H           12.80949576956798        3.78560502638396       -1.47506428042172
H           13.72021293512433        1.03450515889001       -0.53582331561199
H           13.03924734073363        1.45483247249455       -2.11360098963778
H           11.85585022191646       -0.64500597117124       -0.10708132838624
H            9.50748639868717       -0.80226461181233        0.55561009271841
H           10.17150630870031        1.97008619829757        1.68145411318004
H            9.87724430355259       -0.69372648706188        3.17058778283500
H           12.32705272886270        0.40484832391911        3.83067035813345
H           13.31506442882336        0.39918677124699        1.58807495270717
H            7.34285531392928        0.60684889259965       -0.82434551316113
H            7.05251558982722        2.07303905543804       -2.80404110972371
H            8.98619125011735        3.24526195191565       -3.76212710337550
H           11.22253471962781        2.99244978808582       -2.80179006020671
