  28
        -39.37029242
 N         -3.5236364423       -1.1728470541       -1.1729707987
 C         -3.5326581059        0.0743545498       -0.3661414777
 C         -2.7753172065       -0.1335255431        0.9369251240
 O         -1.4626245815       -0.6254656823        0.7077053243
 C         -0.5187224850        0.2907966490        0.3868807158
 C         -0.7218412789        1.6836782837        0.2494064198
 C          0.3105395622        2.5271132972       -0.0850337721
 C          1.5867678697        2.0477449876       -0.2984782591
 C          1.8690865249        0.6744673259       -0.1732113739
 C          3.1621234502        0.1525226333       -0.3732667513
 C          3.4023157383       -1.1879452128       -0.2310878587
 C          2.3719576770       -2.0541654328        0.1143577778
 C          1.1003165770       -1.5728063017        0.3131437217
 C          0.8209372943       -0.2152574985        0.1731339288
 H         -3.9719147161       -1.0482610091       -2.0939487191
 H         -4.0161442777       -1.9355555269       -0.6796733011
 H         -2.5531916900       -1.4845899178       -1.3236857918
 H         -4.5646624386        0.3925308292       -0.1754894067
 H         -3.0648835303        0.8760500943       -0.9466312063
 H         -3.2735729794       -0.9023538590        1.5401774557
 H         -2.7252095431        0.7638328992        1.5648416484
 H         -1.6990076320        2.0992176403        0.4130766975
 H          0.1221550138        3.5848303097       -0.1793875677
 H          2.3822653806        2.7253441232       -0.5575863426
 H          3.9636460215        0.8217164825       -0.6367949910
 H          4.3972048246       -1.5753483623       -0.3843823710
 H          2.5731380630       -3.1072961115        0.2298599867
 H          0.2977599196       -2.2361093924        0.5904119558
  28
        -39.36949945
 N         -3.8454732632       -1.7371194123        0.6550354601
 C         -3.8952835863       -0.7043774423       -0.4113334218
 C         -2.7865453874        0.3193198521       -0.2197907942
 O         -1.5188511955       -0.3171347287       -0.1989754916
 C         -0.4559023207        0.5097070725       -0.0547243322
 C         -0.5244256564        1.9139193349        0.1022455862
 C          0.6120517790        2.6741995367        0.2406235174
 C          1.8649537733        2.0962273932        0.2324383495
 C          2.0141830808        0.7047507725        0.0807195642
 C          3.2784337623        0.0837404899        0.0655560797
 C          3.3868712950       -1.2723476588       -0.0882190346
 C          2.2488164891       -2.0566368926       -0.2327905401
 C          1.0027107077       -1.4775298638       -0.2213322723
 C          0.8565182398       -0.1012211141       -0.0647739687
 H         -4.5432334293       -2.4833109118        0.5098237051
 H         -4.0139632857       -1.3190464063        1.5848488801
 H         -2.9102882427       -2.1689597938        0.6775957383
 H         -4.8804107425       -0.2225875866       -0.4241358089
 H         -3.7727277808       -1.1897498528       -1.3863738264
 H         -2.9113243287        0.8410498777        0.7355599927
 H         -2.7846910020        1.0593981815       -1.0297652683
 H         -1.4821638491        2.4014288741        0.1153301926
 H          0.5247227005        3.7428370918        0.3572344481
 H          2.7433652983        2.7091477913        0.3412615558
 H          4.1622766307        0.6891211651        0.1753497510
 H          4.3604941675       -1.7362927457       -0.0988820090
 H          2.3457670638       -3.1234820417       -0.3557290775
 H          0.1161264528       -2.0781419738       -0.3374851765
  28
        -39.36689901
 N         -3.2442025310       -0.0636478724       -1.3861641086
 C         -3.7209930948       -0.6151252409       -0.0924009360
 C         -2.7693900526       -0.2843037841        1.0486724233
 O         -1.4424870271       -0.7162795028        0.7619120920
 C         -0.5399655841        0.2152985764        0.3673567727
 C         -0.7868144353        1.5866122060        0.1235769064
 C          0.2208406128        2.4368747978       -0.2652556977
 C          1.5134697839        1.9862822378       -0.4376098424
 C          1.8373746567        0.6342135885       -0.2198773360
 C          3.1465655572        0.1401322392       -0.3823958256
 C          3.4266436960       -1.1803903692       -0.1531826291
 C          2.4212696363       -2.0534380181        0.2446660036
 C          1.1350923266       -1.5986510509        0.4099168059
 C          0.8152391530       -0.2618949044        0.1826728723
 H         -3.8430741994       -0.3567056108       -2.1735862559
 H         -2.2837458640       -0.3918033955       -1.5779568078
 H         -3.2299375702        0.9668481324       -1.3721922990
 H         -3.7989651539       -1.7050749868       -0.1851914027
 H         -4.7330593660       -0.2519083600        0.1221925115
 H         -3.0634133319       -0.8115074781        1.9659545919
 H         -2.7754712907        0.7793925772        1.3021884742
 H         -1.7791225599        1.9827859515        0.2311908810
 H         -0.0007530235        3.4782396902       -0.4373385617
 H          2.2887692833        2.6697997855       -0.7389562810
 H          3.9286133516        0.8149907583       -0.6868735551
 H          4.4334672792       -1.5464483784       -0.2787228377
 H          2.6531998809       -3.0906779572        0.4272668681
 H          0.3509464887       -2.2669178476        0.7258531808
  28
        -39.36464538
 N         -4.2936456264       -1.0170622135       -0.3608982604
 C         -3.1255548943       -1.7343106071        0.2120157066
 C         -2.1009647150       -0.7427208734        0.7393313197
 O         -1.7576078937        0.2113815082       -0.2708908713
 C         -0.5039860047        0.7764426976       -0.2021736062
 C         -0.4083305996        2.1885718182       -0.2592206243
 C          0.7856338301        2.8383096516       -0.0684184356
 C          1.9477270629        2.1291445488        0.1536322371
 C          1.9492332558        0.7204117207        0.1344312934
 C          3.1425223171       -0.0156282229        0.2726673651
 C          3.1395031705       -1.3784344085        0.1505118741
 C          1.9578120364       -2.0527061882       -0.1285424947
 C          0.7757665524       -1.3624633405       -0.2512761692
 C          0.7309214624        0.0220822726       -0.0833655677
 H         -4.7831254711       -0.4703966785        0.3626098815
 H         -4.9780203264       -1.6605903903       -0.7942223139
 H         -3.9723840135       -0.3529989763       -1.0804158406
 H         -2.6681235970       -2.3502549951       -0.5703645385
 H         -3.4530269562       -2.4230088348        0.9996730584
 H         -1.2008854243       -1.2327559142        1.1231014160
 H         -2.5215841202       -0.1641903783        1.5706188703
 H         -1.3159151563        2.7465400530       -0.4119693311
 H          0.8147276229        3.9162680647       -0.0861085249
 H          2.8763454591        2.6519187901        0.3072101735
 H          4.0646672418        0.5090990667        0.4575281433
 H          4.0608796878       -1.9303311334        0.2494401389
 H          1.9724076143       -3.1229116540       -0.2597215379
 H         -0.1213984950       -1.8867576040       -0.5313296229
  28
        -39.36447277
 N         -4.2663432425       -1.0922780035        0.2967861083
 C         -3.0817512316       -1.7351127876       -0.3282597496
 C         -2.0998183337       -0.6801471449       -0.8122789956
 O         -1.7713903711        0.2266429787        0.2454236395
 C         -0.5112355117        0.7791702658        0.2353015086
 C         -0.4057968565        2.1827953122        0.3946913333
 C          0.7952427769        2.8348854346        0.2671086772
 C          1.9550853251        2.1339033410        0.0105852173
 C          1.9461571535        0.7274139845       -0.0702694035
 C          3.1365225371       -0.0059285826       -0.2438825629
 C          3.1231978084       -1.3738393347       -0.2179303871
 C          1.9334693808       -2.0570745709       -0.0026024749
 C          0.7543907732       -1.3683123740        0.1525504341
 C          0.7199823488        0.0249291953        0.0810951510
 H         -4.7857127558       -0.5264565666       -0.3902491565
 H         -3.9580390613       -0.4542505948        1.0484723870
 H         -4.9192216171       -1.7807680302        0.7026420911
 H         -3.3956563646       -2.3910766554       -1.1490461167
 H         -2.5932016312       -2.3762619730        0.4135029326
 H         -2.5546854618       -0.0696535990       -1.6010708791
 H         -1.1902779301       -1.1142932310       -1.2401024162
 H         -1.3114627028        2.7360146623        0.5739087327
 H          0.8318132217        3.9085778311        0.3621412600
 H          2.8895022685        2.6586446518       -0.0930589341
 H          4.0645576220        0.5236040269       -0.3787982673
 H          4.0422665424       -1.9242766188       -0.3430565544
 H          1.9392747705       -3.1339283441        0.0531892054
 H         -0.1492461490       -1.9048920639        0.3835664608
  28
        -39.36434817
 N         -4.2491746742       -1.0891435240       -0.4090293094
 C         -3.0628241905       -1.7622784499        0.1796827628
 C         -2.1035132350       -0.7348785052        0.7591832673
 O         -1.7765188024        0.2589358587       -0.2176810962
 C         -0.5136731232        0.8022324898       -0.1698656808
 C         -0.4031633049        2.2133480793       -0.2270328823
 C          0.8001670947        2.8503099696       -0.0530971789
 C          1.9575876986        2.1284982633        0.1510540475
 C          1.9437520832        0.7199064883        0.1288608585
 C          3.1318550294       -0.0279431034        0.2475187124
 C          3.1143117483       -1.3901648552        0.1209667404
 C          1.9224084167       -2.0518741419       -0.1436464880
 C          0.7455208573       -1.3498237320       -0.2470672833
 C          0.7150926854        0.0344577249       -0.0728567722
 H         -4.7854325449       -0.5862773915        0.3130828167
 H         -4.8881747079       -1.7541728563       -0.8777198901
 H         -3.9419257906       -0.3914890348       -1.1024109194
 H         -2.5554932079       -2.3361227723       -0.6037209984
 H         -3.3770016897       -2.4852681972        0.9415952963
 H         -1.1929974378       -1.1872814943        1.1643447488
 H         -2.5782814704       -0.1957783517        1.5879915498
 H         -1.3070420953        2.7813068685       -0.3643595320
 H          0.8404042867        3.9279496526       -0.0696079091
 H          2.8938535738        2.6410309796        0.2923123797
 H          4.0615798286        0.4873445935        0.4205556698
 H          4.0316420578       -1.9512400376        0.2047596551
 H          1.9247180416       -3.1216969350       -0.2786863003
 H         -0.1595168900       -1.8653565207       -0.5168102297
  28
        -39.36126724
 N         -4.3946510651       -0.8630366135       -0.2882871693
 C         -3.4148436336       -1.1769961269        0.7832128167
 C         -1.9959350817       -1.1276590173        0.2368611888
 O         -1.7502181801        0.1392157443       -0.3647782502
 C         -0.4901232852        0.6612163705       -0.2963469743
 C         -0.4369962673        2.0741379493       -0.3995577122
 C          0.7190253741        2.7799285286       -0.1836442619
 C          1.8929276865        2.1246456192        0.1163836811
 C          1.9465061900        0.7175779262        0.1451335750
 C          3.1671738718        0.0510106269        0.3710742382
 C          3.2437571645       -1.3117467588        0.2956554143
 C          2.1151929966       -2.0521828602       -0.0251285851
 C          0.9074980062       -1.4293441618       -0.2324600304
 C          0.7698964969       -0.0437560097       -0.1101116551
 H         -5.3619742962       -0.8114886221        0.0669705644
 H         -4.3663993474       -1.5737379015       -1.0376816922
 H         -4.1585410134        0.0431929599       -0.7180490079
 H         -3.6370370464       -2.1558189125        1.2249574798
 H         -3.5176322959       -0.4403711243        1.5882303460
 H         -1.8731109522       -1.8873778191       -0.5416950118
 H         -1.2597359141       -1.2952350894        1.0319536977
 H         -1.3588695601        2.5915983540       -0.6021794824
 H          0.7067903751        3.8570170005       -0.2377293316
 H          2.7930243736        2.6877757765        0.2954946243
 H          4.0493323734        0.6301188962        0.5865556140
 H          4.1854525257       -1.8107894170        0.4616043380
 H          2.1919199143       -3.1234359512       -0.1231160016
 H          0.0732762734       -2.0244689141       -0.5530967680
  28
        -39.36108059
 N         -4.3996208936       -0.8607585925        0.2268924129
 C         -3.4068287944       -1.2011612625       -0.8244012830
 C         -1.9943501933       -1.1309007964       -0.2638141255
 O         -1.7602620984        0.1526738835        0.3051251327
 C         -0.4963950298        0.6676415233        0.2622734436
 C         -0.4436981133        2.0818721754        0.3470560197
 C          0.7193158030        2.7836344517        0.1578352486
 C          1.9006800930        2.1231235622       -0.0974004889
 C          1.9523537058        0.7157854590       -0.1081201689
 C          3.1785569506        0.0460465946       -0.2904991024
 C          3.2514883003       -1.3158844465       -0.1997558443
 C          2.1127857978       -2.0519939682        0.0934890293
 C          0.9002061981       -1.4260680624        0.2588047330
 C          0.7673451637       -0.0414330497        0.1201739013
 H         -5.3634463598       -0.8253890828       -0.1397222578
 H         -4.1722645391        0.0615556881        0.6326820723
 H         -4.3755355229       -1.5468902482        0.9956443918
 H         -3.5033224323       -0.4878191219       -1.6512301840
 H         -3.6205066505       -2.1927380406       -1.2405404515
 H         -1.2487620753       -1.3168127019       -1.0453071002
 H         -1.8784998292       -1.8682863961        0.5375501891
 H         -1.3704369413        2.6031124929        0.5148628622
 H          0.7071479466        3.8613405941        0.1978837449
 H          2.8068723025        2.6827252801       -0.2556773350
 H          4.0674477762        0.6222846747       -0.4850161685
 H          4.1971825475       -1.8173104340       -0.3324467693
 H          2.1850947192       -3.1224384525        0.2030828250
 H          0.0569075684       -2.0189524721        0.5586187325
  28
        -39.36090096
 N         -3.3229249070       -0.0146177564       -1.1836011220
 C         -2.4021935896       -1.1422454979       -0.8898844697
 C         -2.1780826327       -1.2695889567        0.6081642838
 O         -1.7581922051       -0.0350260627        1.1923177064
 C         -0.6107799331        0.5555916220        0.7306069611
 C         -0.6462489946        1.9670685306        0.5943936544
 C          0.3441057170        2.6544083031       -0.0615613372
 C          1.4368928181        1.9911164202       -0.5787177893
 C          1.6067967477        0.6079761271       -0.3700296562
 C          2.7773817097       -0.0543737905       -0.7905532783
 C          2.9976083424       -1.3622256458       -0.4555360503
 C          2.0771585117       -2.0446375550        0.3285576073
 C          0.9152225838       -1.4309854496        0.7326032417
 C          0.6178214805       -0.1214111797        0.3475909810
 H         -3.4563381540        0.1320070866       -2.1962397875
 H         -2.9483694015        0.8557637155       -0.7738540765
 H         -4.2489677139       -0.1757035916       -0.7608046139
 H         -1.4442693134       -0.9652507931       -1.3909515266
 H         -2.8021013435       -2.0733256287       -1.3086261199
 H         -1.4825732746       -2.0718468577        0.8624015884
 H         -3.1225067634       -1.5152663683        1.1101603523
 H         -1.5054155509        2.4868511691        0.9823897397
 H          0.2648613728        3.7236416591       -0.1784802773
 H          2.2027969178        2.5403337005       -1.0993281326
 H          3.5141966464        0.4898961154       -1.3570065094
 H          3.9038757083       -1.8550162515       -0.7706576158
 H          2.2867561471       -3.0564555870        0.6377013095
 H          0.2744541867       -1.9356405109        1.4335091542
