  28
        -39.37029242
 N         -3.5236364423       -1.1728470541       -1.1729707987
 C         -3.5326581059        0.0743545498       -0.3661414777
 C         -2.7753172065       -0.1335255431        0.9369251240
 O         -1.4626245815       -0.6254656823        0.7077053243
 C         -0.5187224850        0.2907966490        0.3868807158
 C         -0.7218412789        1.6836782837        0.2494064198
 C          0.3105395622        2.5271132972       -0.0850337721
 C          1.5867678697        2.0477449876       -0.2984782591
 C          1.8690865249        0.6744673259       -0.1732113739
 C          3.1621234502        0.1525226333       -0.3732667513
 C          3.4023157383       -1.1879452128       -0.2310878587
 C          2.3719576770       -2.0541654328        0.1143577778
 C          1.1003165770       -1.5728063017        0.3131437217
 C          0.8209372943       -0.2152574985        0.1731339288
 H         -3.9719147161       -1.0482610091       -2.0939487191
 H         -4.0161442777       -1.9355555269       -0.6796733011
 H         -2.5531916900       -1.4845899178       -1.3236857918
 H         -4.5646624386        0.3925308292       -0.1754894067
 H         -3.0648835303        0.8760500943       -0.9466312063
 H         -3.2735729794       -0.9023538590        1.5401774557
 H         -2.7252095431        0.7638328992        1.5648416484
 H         -1.6990076320        2.0992176403        0.4130766975
 H          0.1221550138        3.5848303097       -0.1793875677
 H          2.3822653806        2.7253441232       -0.5575863426
 H          3.9636460215        0.8217164825       -0.6367949910
 H          4.3972048246       -1.5753483623       -0.3843823710
 H          2.5731380630       -3.1072961115        0.2298599867
 H          0.2977599196       -2.2361093924        0.5904119558
