28
 energy: -39.379394619277 gnorm: 0.000301807058 xtb: 6.5.1 (fef0646)
N            2.76562998633742        0.60762164151535        0.42674769205485
C            2.84180692310079       -0.15699099806892       -0.84955756603055
C            3.27115693105846       -1.57613878387165       -0.46327172625577
O            4.31283168322244       -1.38153760816286        0.46836421244770
C            4.92954432613578       -2.49370718723072        1.04802234775534
C            4.57991317156558       -3.78546127992494        0.77100873607220
C            5.24586197880148       -4.84185139318916        1.41525224712161
C            6.23699932414723       -4.59335458279286        2.31843007731796
C            6.61991445844041       -3.26859211488574        2.61857173523797
C            7.64692658142119       -2.98333932447303        3.54199457684054
C            8.00960072211826       -1.69388760813673        3.81419830086589
C            7.36378692987089       -0.62890262880920        3.16996892634859
C            6.36258433917047       -0.86977063308594        2.27046539245027
C            5.96193018753054       -2.18889835179689        1.97367885441267
H            2.88973736705369        1.61668171169161        0.30395351357350
H            3.56113479414468        0.18768035688409        0.97373784065926
H            1.88844423745892        0.43018603321274        0.92856811660986
H            3.61232018224186        0.29602360020676       -1.47485635857980
H            1.89144654413067       -0.15007655463984       -1.38032541142040
H            3.61550146893186       -2.12269592471809       -1.34677868623178
H            2.43887772548167       -2.12829754468274       -0.00567446341132
H            3.80317020085241       -4.02287054977343        0.06157932768617
H            4.95538955850140       -5.85346966064378        1.18025260956363
H            6.74582831259976       -5.40551397215205        2.81368322287770
H            8.14458636249825       -3.80848124667928        4.02853220867583
H            8.79772675704302       -1.48546878438132        4.52089688292307
H            7.66625222394367        0.38448396390674        3.38637930297332
H            5.88366672219705       -0.04440057531770        1.76214808746235
