  15
  -19.387516970000000       0.16992658460423052      !md4
 N          2.3420999083       -0.0004488969        0.0005492072
 C          0.9056006631       -0.0063842012       -0.0010693345
 C          0.1869219918       -1.2060566830       -0.0002066027
 C         -1.2055126257       -1.1998589688        0.0001342509
 C         -1.8974272216        0.0064821819        0.0002930878
 C         -1.1944597275        1.2063631911        0.0001481785
 C          0.1978614107        1.1988584135       -0.0003031056
 H          2.7687697395       -0.9368045198       -0.0120338099
 H          2.7555181511        0.4815935665       -0.8096319248
 H          2.7538239213        0.4591594815        0.8245216179
 H          0.7217592684       -2.1422968002        0.0002932253
 H         -1.7497864866       -2.1338380586       -0.0000081747
 H         -2.9786752982        0.0115195814        0.0003841293
 H         -1.7296468172        2.1455620781        0.0001968527
 H          0.7444489487        2.1284461918        0.0006046697
  15
  -19.387514440000000       0.16947225999085389      !md3
 N          2.3420367769       -0.0134173717       -0.0010350428
 C          0.9056185410        0.0009129918        0.0012349999
 C          0.1908598635       -1.2000148677        0.0003938699
 C         -1.2014874398       -1.1992351766       -0.0000288634
 C         -1.8974002472        0.0047468012       -0.0001443058
 C         -1.1984539888        1.2070116029       -0.0000583757
 C          0.1939414655        1.2049416027        0.0003444886
 H          2.7742014740        0.9203305637        0.0166628268
 H          2.7530267768       -0.5021398706        0.8063317958
 H          2.7507394894       -0.4707544817       -0.8277446840
 H          0.7317874890       -2.1329143241        0.0000800943
 H         -1.7422686249       -2.1352384074       -0.0002659144
 H         -2.9786602295        0.0060542943       -0.0002824492
 H         -1.7371071273        2.1442398741       -0.0005314891
 H          0.7342528602        2.1380537202       -0.0006232203
  15
  -19.387513890000001       0.16937365461906187      !gc
 N          2.3421116850       -0.0004907889        0.0011511192
 C          0.9056356531       -0.0063285744       -0.0018512050
 C          0.1869075196       -1.2059666979       -0.0005073406
 C         -1.2055434665       -1.1998713249        0.0002631683
 C         -1.8974675503        0.0064566627        0.0004626442
 C         -1.1944381227        1.2063052845        0.0002190555
 C          0.1978923298        1.1989088961       -0.0005528635
 H          2.7564665526        0.4930485650       -0.8014602685
 H          2.7530445941        0.4470782660        0.8321102219
 H          2.7688434641       -0.9366774839       -0.0249807934
 H          0.7214889023       -2.1423604836        0.0001627159
 H         -1.7495582056       -2.1340081481        0.0005961045
 H         -2.9787132603        0.0114425579        0.0007255443
 H         -1.7296624383        2.1454954296        0.0004552183
 H          0.7441158449        2.1287095764       -0.0001707581
  15
  -19.387509550000001       0.16859757845164469      !md2
 N          2.3420620648       -0.0134841705       -0.0025178793
 C          0.9056677660        0.0009781780        0.0028579208
 C          0.1908721859       -1.1999485809        0.0012859365
 C         -1.2015095726       -1.1992374243       -0.0002262097
 C         -1.8974440456        0.0047399003       -0.0007630866
 C         -1.1984733751        1.2069751921       -0.0001987200
 C          0.1939353819        1.2049563541        0.0011968322
 H          2.7547459013       -0.5142648531        0.7964788775
 H          2.7488853634       -0.4585357710       -0.8368404811
 H          2.7745494791        0.9198950168        0.0285015386
 H          0.7317219168       -2.1328713868        0.0011619489
 H         -1.7421829330       -2.1352997857       -0.0012433279
 H         -2.9787018237        0.0060747882       -0.0018667058
 H         -1.7371283518        2.1442098531       -0.0012972454
 H          0.7340868938        2.1381521924        0.0006093353
  15
  -19.387509410000000       0.16857260302925309      !md1
 N          2.3419847580       -0.0134240878       -0.0033169286
 C          0.9056304692        0.0009281539        0.0038364356
 C          0.1908983932       -1.2000125536        0.0016573254
 C         -1.2014901123       -1.1992724815       -0.0002973096
 C         -1.8974504981        0.0047691052       -0.0010856165
 C         -1.1984213463        1.2069830601       -0.0002795742
 C          0.1939743070        1.2049520087        0.0015873349
 H          2.7478082607       -0.4433886718       -0.8458603039
 H          2.7744486753        0.9192838306        0.0442968520
 H          2.7557134042       -0.5284865448        0.7861638903
 H          0.7318195985       -2.1329246504        0.0011399761
 H         -1.7423043694       -2.1352482436       -0.0013093587
 H         -2.9787169192        0.0062092841       -0.0029584172
 H         -1.7369600662        2.1443121211       -0.0010770466
 H          0.7341354430        2.1381542119        0.0011268535
  15
  -19.387424320000001       0.15405731930495606      !md3
 N          2.3413446683       -0.0057670845        0.0198732630
 C          0.9058304484       -0.0033806738       -0.0248848687
 C          0.1886757414       -1.2034667008       -0.0100022751
 C         -1.2036983251       -1.1995781688        0.0025227135
 C         -1.8972778551        0.0057663438        0.0071209008
 C         -1.1958997406        1.2065724933        0.0025235880
 C          0.1964121166        1.2012840216       -0.0103184986
 H          2.7256753678        0.0508889897        0.9729872960
 H          2.7724935852       -0.8458042263       -0.3898288967
 H          2.7769131353        0.7754949432       -0.4894606643
 H          0.7259675713       -2.1383685629       -0.0062177167
 H         -1.7463681910       -2.1344612774        0.0098383835
 H         -2.9784891433        0.0092716452        0.0165406413
 H         -1.7324386198        2.1449867844        0.0102408302
 H          0.7403464446        2.1323670080       -0.0065625477
