  15
  -19.494780909999999       0.14515312748131570      !gc
 N          2.3439880834       -0.0001125723        0.0017131561
 C          0.9038374350       -0.0066484081       -0.0020225815
 C          0.1861391246       -1.2048047677       -0.0011847300
 C         -1.2050392946       -1.1984654845        0.0002791992
 C         -1.8962530033        0.0067927997        0.0010927620
 C         -1.1935190804        1.2052393431        0.0003466157
 C          0.1975962820        1.1971761649       -0.0012813805
 H          2.7608653631       -0.9350767605       -0.0104599007
 H          2.7432680180        0.4563249915        0.8263028507
 H          2.7475488736        0.4790110270       -0.8080458103
 H          0.7187928375       -2.1402759684       -0.0013681991
 H         -1.7479731700       -2.1308538943        0.0008601706
 H         -2.9753826226        0.0120314369        0.0023325908
 H         -1.7269373119        2.1430938320        0.0011136958
 H          0.7424474148        2.1257749120       -0.0015319182
  15
  -19.494780440000000       0.14508095329416454      !mtd12
 N          2.3439744562       -0.0141359584        0.0013240093
 C          0.9038829989        0.0012513856       -0.0018824735
 C          0.1902548819       -1.1983332034       -0.0008501233
 C         -1.2008082430       -1.1979725448        0.0003191503
 C         -1.8962755430        0.0047605786        0.0007848074
 C         -1.1977665168        1.2057462768        0.0002693056
 C          0.1935033385        1.2036313084       -0.0008719352
 H          2.7405243777       -0.4690461275        0.8281078258
 H          2.7670855945        0.9179247341       -0.0160316999
 H          2.7440686160       -0.5004205027       -0.8058976526
 H          0.7294686611       -2.1301996146       -0.0007330823
 H         -1.7399167655       -2.1325683055        0.0008171334
 H         -2.9754148720        0.0059886776        0.0016859925
 H         -1.7350344327        2.1414102217        0.0009611508
 H          0.7316866098        2.1359381942       -0.0007196019
  15
  -19.494779990000001       0.14501188397836365      !md2
 N          2.3440162130       -0.0001407739        0.0006661305
 C          0.9038524099       -0.0066556631       -0.0011356067
 C          0.1861537771       -1.2047965358       -0.0004491168
 C         -1.2050352516       -1.1984591077        0.0002042788
 C         -1.8962804075        0.0067908533        0.0005043229
 C         -1.1935392346        1.2052300977        0.0002597973
 C          0.1975730988        1.1971497923       -0.0005205876
 H          2.7462652735        0.4788821219       -0.8095973649
 H          2.7612760999       -0.9349067963       -0.0116483242
 H          2.7442928509        0.4570794800        0.8245971962
 H          0.7187481922       -2.1402885302       -0.0002763817
 H         -1.7479569288       -2.1308485763        0.0005215240
 H         -2.9754094047        0.0120084128        0.0010707033
 H         -1.7269374392        2.1430984981        0.0005520017
 H          0.7424016177        2.1257568996       -0.0009280950
  15
  -19.494779040000001       0.14486617894191658      !gc
 N          2.3439697010       -0.0141055751        0.0012624291
 C          0.9038824879        0.0012228860       -0.0018164187
 C          0.1902457337       -1.1983538787       -0.0007837516
 C         -1.2008164715       -1.1979737744        0.0002903370
 C         -1.8962780058        0.0047619485        0.0007567734
 C         -1.1977592865        1.2057430651        0.0002895569
 C          0.1935091480        1.2036117491       -0.0008537299
 H          2.7439891393       -0.4983516805       -0.8069948766
 H          2.7406196539       -0.4709115163        0.8269234693
 H          2.7671389984        0.9181973107       -0.0138038511
 H          0.7294748358       -2.1302116309       -0.0004162959
 H         -1.7399132786       -2.1325764809        0.0007044690
 H         -2.9754178571        0.0060119761        0.0015847348
 H         -1.7350151848        2.1414137948        0.0007993062
 H          0.7317446872        2.1358889671       -0.0011100639
  15
  -19.494778690000000       0.14481253505130126      !md2
 N          2.3439781104       -0.0141430037        0.0005870462
 C          0.9038936597        0.0012550459       -0.0011266335
 C          0.1902519876       -1.1983290723       -0.0004682507
 C         -1.2008204944       -1.1979824474        0.0002510304
 C         -1.8962778789        0.0047602876        0.0004680973
 C         -1.1977676986        1.2057382815        0.0001294023
 C          0.1934958605        1.2036305101       -0.0004091119
 H          2.7671412935        0.9179856842       -0.0124052239
 H          2.7432295663       -0.4961268207       -0.8093526333
 H          2.7414555018       -0.4732293526        0.8248483615
 H          0.7294669805       -2.1301936133       -0.0000567217
 H         -1.7399149495       -2.1325842233        0.0006338740
 H         -2.9754143388        0.0060446336        0.0009532947
 H         -1.7350295461        2.1414088751        0.0006768890
 H          0.7316669826        2.1359534202        0.0003135535
  15
  -19.494776269999999       0.14444216897234197      !md4
 N          2.3439978033       -0.0000957992       -0.0003238953
 C          0.9038674329       -0.0066768927        0.0002182943
 C          0.1861240700       -1.2047951793       -0.0000133384
 C         -1.2050442053       -1.1984530057        0.0000877552
 C         -1.8962711148        0.0067900558        0.0002117975
 C         -1.1935271140        1.2052379841        0.0001256677
 C          0.1975827191        1.1971421034       -0.0000545201
 H          2.7455805345        0.4759317074        0.8120144569
 H          2.7449783730        0.4598359599       -0.8221746735
 H          2.7613945335       -0.9350565737        0.0088200837
 H          0.7187688227       -2.1402958152       -0.0003993428
 H         -1.7479295624       -2.1308691030       -0.0001066380
 H         -2.9753952117        0.0119550747        0.0002195718
 H         -1.7269703411        2.1430775906       -0.0001371173
 H          0.7424208157        2.1257489166       -0.0005952090
  15
  -19.494681310000001       0.13063315228059635      !gc
 N          2.3432450399       -0.0072178364        0.0240896836
 C          0.9042679764       -0.0026557920       -0.0294813653
 C          0.1883135562       -1.2013400087       -0.0129895317
 C         -1.2027255738       -1.1981357753        0.0031552775
 C         -1.8961473823        0.0057589191        0.0091602304
 C         -1.1955037262        1.2054081203        0.0027976864
 C          0.1956181203        1.2002608086       -0.0129685731
 H          2.7099470209       -0.0145494044        0.9794206065
 H          2.7717442925        0.8043523443       -0.4296292529
 H          2.7668740206       -0.8154736207       -0.4404417770
 H          0.7241720456       -2.1350395807       -0.0065780434
 H         -1.7435645766       -2.1316769527        0.0134590503
 H         -2.9752012448        0.0089829697        0.0223153244
 H         -1.7307236350        2.1421827428        0.0128507138
 H          0.7370576643        2.1307448126       -0.0056064382
