  15
        -19.49478091
 N          2.3439880834       -0.0001125723        0.0017131561
 C          0.9038374350       -0.0066484081       -0.0020225815
 C          0.1861391246       -1.2048047677       -0.0011847300
 C         -1.2050392946       -1.1984654845        0.0002791992
 C         -1.8962530033        0.0067927997        0.0010927620
 C         -1.1935190804        1.2052393431        0.0003466157
 C          0.1975962820        1.1971761649       -0.0012813805
 H          2.7608653631       -0.9350767605       -0.0104599007
 H          2.7432680180        0.4563249915        0.8263028507
 H          2.7475488736        0.4790110270       -0.8080458103
 H          0.7187928375       -2.1402759684       -0.0013681991
 H         -1.7479731700       -2.1308538943        0.0008601706
 H         -2.9753826226        0.0120314369        0.0023325908
 H         -1.7269373119        2.1430938320        0.0011136958
 H          0.7424474148        2.1257749120       -0.0015319182
