15
 energy: -19.496644462764 gnorm: 0.000471673417 xtb: 6.5.1 (fef0646)
N            2.32576073212905       -0.04785903287694       -0.16088102052363
C            0.86366640813855       -0.02781848970478       -0.06694057470756
C            0.16662091036698       -1.22499840459256       -0.03797323316339
C           -1.21612730540069       -1.20386674747778        0.03533018437164
C           -1.89191340890938        0.00527369840142        0.07876820818869
C           -1.18654613421957        1.19724765851502        0.04998909573754
C            0.19700007675569        1.18498775832711       -0.02350655702888
H            2.71637008760591       -0.81388395697365        0.40461517061022
H            2.71929490202569        0.84490403523034        0.16562798190952
H            2.62440327125023       -0.19188512620515       -1.13717409843427
H            0.68600732440670       -2.16923774322226       -0.07269047244945
H           -1.76702946031029       -2.13080249331195        0.05859360237550
H           -2.96915829148018        0.01823522245898        0.13576385633647
H           -1.71402419579458        2.13735172918139        0.08488610328439
H            0.73828508343588        2.11732189225079       -0.04671824650678
