  39
        -50.47258762
 N          1.3141908713        0.6543271249        1.8987317026
 C          2.6661723868        1.1847038094        1.5667291912
 C          2.6339907377        2.1227643493        0.3572604901
 C          2.5580568792        1.3968408639       -1.0054461205
 C          1.1617774217        1.2537789458       -1.6192673135
 N          0.2584474139        0.3224741940       -0.9267767224
 C          0.2686099323       -1.1237131751       -1.2696956522
 C         -1.0612820408       -1.6593085619       -0.6109895076
 C         -0.8383979938       -2.5391878442        0.5822158592
 C          0.3611052087       -2.9886524411        0.9443419127
 C          1.5495771124       -2.6680460929        0.1931681185
 C          1.5192983165       -1.8254617816       -0.8337901420
 C         -0.9944261611        0.7204439371       -0.4255446244
 C         -1.8120660320       -0.4011117956       -0.2372480003
 C         -3.0998940206       -0.2541563037        0.2283372696
 C         -3.5721235702        1.0147592718        0.5127864062
 C         -2.7643679429        2.1254763133        0.3328675805
 C         -1.4755352738        1.9912217249       -0.1360079365
 H          1.3429988581       -0.1956362864        2.4797270556
 H          0.8474849325        0.4398879020        0.9962802760
 H          0.7386585208        1.3601341002        2.3780418742
 H          3.3515227972        0.3537806888        1.3641756902
 H          3.0745851860        1.6922768431        2.4490197736
 H          3.5294562141        2.7574281125        0.3806246559
 H          1.7932357173        2.8170947202        0.4536727328
 H          3.0185115948        0.4093714771       -0.9109837886
 H          3.1937495318        1.9280662294       -1.7261492054
 H          1.2340557533        0.9099744352       -2.6552488872
 H          0.6769128652        2.2312086539       -1.6712649542
 H          0.1811960491       -1.1882467256       -2.3648966736
 H         -1.6417464304       -2.2180898796       -1.3587207151
 H         -1.6987258565       -2.7870782120        1.1828129987
 H          0.4572517916       -3.6155922390        1.8159356864
 H          2.4757731168       -3.1458746712        0.4676311576
 H          2.4206921253       -1.6421649884       -1.3938424617
 H         -3.7232392222       -1.1209175832        0.3634817761
 H         -4.5782937889        1.1392598879        0.8777274415
 H         -3.1487441657        3.1062934789        0.5607154455
 H         -0.8471687450        2.8529281055       -0.2706121758
