  15
  -20.486196929999998        9.0989989889328188E-002 !gc
 N         -2.6554385231       -0.0641658461        0.5914849749
 C         -1.8109658289        0.2610074444       -0.5940438083
 C         -0.3610890571        0.2764030986       -0.2796066522
 C          0.4325875593        1.4001435023       -0.0813455255
 C          1.7702687562        1.1030824264        0.2023952510
 C          2.0389099037       -0.2523949402        0.2332084259
 S          0.6087094300       -1.1390097191       -0.0933304142
 H         -3.6596574705       -0.0689427008        0.3574235693
 H         -2.5121408883        0.6227104240        1.3459810271
 H         -2.4178499674       -0.9929212316        0.9689287443
 H         -2.1100288120        1.2341100888       -1.0030716724
 H         -1.9992551293       -0.4715445558       -1.3892791371
 H          0.0517709330        2.4101598867       -0.1482503488
 H          2.5242434298        1.8613224421        0.3772112261
 H          2.9986036007       -0.6998310380        0.4294845165
  15
  -20.486196929999998        9.0989989889328188E-002 !mtd13
 N         -2.6270293559       -0.1125228148       -0.7010609035
 C         -1.8348682856        0.3016923456        0.4927802388
 C         -0.3725642904        0.2959241827        0.2420129527
 C          0.4308663254        1.4029911236       -0.0048140834
 C          1.7792321900        1.0877592001       -0.2065147782
 C          2.0467710155       -0.2657695290       -0.1239334954
 S          0.6021845748       -1.1278372645        0.2049989148
 H         -3.6405640256       -0.1013615983       -0.5116243210
 H         -2.3746825134       -1.0665840361       -0.9972485209
 H         -2.4495662434        0.5162152063       -1.4977121170
 H         -2.0590845007       -0.3696938064        1.3314832050
 H         -2.1499951122        1.3021581800        0.8144387686
 H          0.0491291379        2.4145500518       -0.0304262484
 H          2.5413821372        1.8320426406       -0.4043429565
 H          3.0134211506       -0.7250450986       -0.2438874895
  15
  -20.486196750000001        9.0972660215265427E-002 !mtd11
 N         -2.6554344716       -0.0640917156        0.5915204518
 C         -1.8109678269        0.2609641280       -0.5940445189
 C         -0.3610907561        0.2763813807       -0.2796124847
 C          0.4325633266        1.4001330695       -0.0813262261
 C          1.7702465482        1.1030901215        0.2024243600
 C          2.0389072773       -0.2523835285        0.2332353706
 S          0.6087350602       -1.1390175428       -0.0933720393
 H         -2.5120817308        0.6226398550        1.3458104268
 H         -2.4178967358       -0.9929159639        0.9690133792
 H         -3.6598306107       -0.0687987656        0.3574580060
 H         -2.1100246217        1.2340246482       -1.0031782182
 H         -1.9992704944       -0.4716702519       -1.3892000048
 H          0.0517422506        2.4101449016       -0.1482756634
 H          2.5242100173        1.8613394552        0.3772483670
 H          2.9985948348       -0.6998102464        0.4295626566
  15
  -20.486196629999998        9.0961108932448922E-002 !md5
 N         -2.6270010291       -0.1129024690       -0.7009721399
 C         -1.8348643168        0.3019487590        0.4926633502
 C         -0.3725531509        0.2960570526        0.2419351538
 C          0.4309645334        1.4030434992       -0.0049737561
 C          1.7793172024        1.0876989562       -0.2065855765
 C          2.0467592551       -0.2658398137       -0.1238565350
 S          0.6020978167       -1.1277751509        0.2050960588
 H         -2.3746797411       -1.0668854539       -0.9965987791
 H         -2.4495340250        0.5154783493       -1.4979924961
 H         -3.6407090982       -0.1016684583       -0.5115280563
 H         -2.0590938424       -0.3689827772        1.3317270685
 H         -2.1500127355        1.3025859934        0.8137644092
 H          0.0493038800        2.4146291147       -0.0306773508
 H          2.5415256098        1.8319103599       -0.4044596627
 H          3.0133826828       -0.7251930161       -0.2437289515
  15
  -20.486196430000000        9.0941860054294527E-002 !md1
 N         -2.6269829082       -0.1136202041       -0.7007567467
 C         -1.8348512261        0.3024476716        0.4924561224
 C         -0.3725269166        0.2963168454        0.2417867646
 C          0.4311524696        1.4031474511       -0.0053006565
 C          1.7794841001        1.0875926333       -0.2067171094
 C          2.0467565272       -0.2659577616       -0.1236268824
 S          0.6019273040       -1.1276555347        0.2052249096
 H         -2.4496649553        0.5139361715       -1.4981521163
 H         -3.6407520908       -0.1023294939       -0.5112688749
 H         -2.3745234465       -1.0679936602       -0.9955973967
 H         -2.0590725600       -0.3675865327        1.3322425602
 H         -2.1500475865        1.3034213480        0.8124512721
 H          0.0496074161        2.4147680723       -0.0313441229
 H          2.5417886419        1.8316631066       -0.4047514211
 H          3.0133546487       -0.7254429961       -0.2432014158
  15
  -20.486195850000001        9.0886061339361932E-002 !gc
 N         -2.6554817245       -0.0637781309        0.5915942094
 C         -1.8109704146        0.2607642842       -0.5940788300
 C         -0.3611011676        0.2762676329       -0.2796168039
 C          0.4324527195        1.4000679119       -0.0812118623
 C          1.7701576278        1.1031141887        0.2025302086
 C          2.0389398362       -0.2523386235        0.2331973350
 S          0.6088398085       -1.1390662864       -0.0934735887
 H         -2.4179457389       -0.9921848200        0.9694603130
 H         -3.6599308271       -0.0686715531        0.3574617786
 H         -2.5122071064        0.6234436885        1.3456870432
 H         -2.1099878633        1.2336682960       -1.0036121562
 H         -1.9992718188       -0.4721852457       -1.3889445770
 H          0.0515295537        2.4100512477       -0.1480066309
 H          2.5240491807        1.8614130440        0.3774491247
 H          2.9986769415       -0.6996968484        0.4294385808
  15
  -20.486073110000000        7.9815986300983535E-002 !mtd11
 N         -2.6637296300        0.0047661221        0.6074612448
 C         -1.8124205382        0.2181975727       -0.5983814674
 C         -0.3638349154        0.2522473064       -0.2800619253
 C          0.4080220033        1.3862754562       -0.0572169788
 C          1.7502386924        1.1085509862        0.2247856539
 C          2.0440749962       -0.2420452788        0.2298354524
 S          0.6315341675       -1.1485651033       -0.1180348883
 H         -3.6668280171       -0.0175393982        0.3696470089
 H         -2.5214858061        0.7562673629        1.2978152259
 H         -2.4314698351       -0.8869472586        1.0683301648
 H         -2.1026396033        1.1529394002       -1.0941208645
 H         -2.0025897167       -0.5810923519       -1.3260058677
 H          0.0087269542        2.3900976635       -0.1069200928
 H          2.4894987235        1.8771266619        0.4164606157
 H          3.0116138298       -0.6750056958        0.4199706291
  15
  -20.486033070000001        7.6504815956258465E-002 !md5
 N         -2.6392273540        0.0088343496       -0.7162510213
 C         -1.8351659800        0.2180819452        0.5222882337
 C         -0.3752768102        0.2514912895        0.2607083717
 C          0.4006788779        1.3838040652        0.0437346236
 C          1.7540393170        1.1061724311       -0.1788866195
 C          2.0527851818       -0.2428618991       -0.1425412431
 S          0.6308041315       -1.1480398451        0.1684590120
 H         -2.3888001260       -0.8809052579       -1.1709886488
 H         -2.4710117311        0.7629758040       -1.3978300149
 H         -3.6509256996       -0.0148012351       -0.5174378339
 H         -2.0542097931       -0.5829369707        1.2398108567
 H         -2.1434407462        1.1517489816        1.0091166125
 H         -0.0043255299        2.3865135610        0.0537832007
 H          2.4974448839        1.8736406157       -0.3585637662
 H          3.0286337755       -0.6757177901       -0.2843032232
  15
  -20.486028170000001        7.6109153320883499E-002 !mtd5
 N         -2.6394353648        0.0110941704       -0.7163965777
 C         -1.8351934217        0.2166024691        0.5226643784
 C         -0.3753505415        0.2506338844        0.2609650518
 C          0.4000637563        1.3834276166        0.0446039053
 C          1.7535138680        1.1064807300       -0.1783179467
 C          2.0529234140       -0.2424360000       -0.1429087996
 S          0.6313827658       -1.1484057211        0.1677862931
 H         -2.4711945196        0.7668784793       -1.3957829846
 H         -3.6511655020       -0.0128920795       -0.5174388573
 H         -2.3893063012       -0.8776018237       -1.1737272080
 H         -2.0542752193       -0.5865389205        1.2377896825
 H         -2.1432803308        1.1488491475        1.0123359676
 H         -0.0052915047        2.3859792011        0.0559892928
 H          2.4965802597        1.8744367099       -0.3573268325
 H          3.0289336382       -0.6747744662       -0.2851278339
  15
  -20.486024640000000        7.5825383405379143E-002 !md4
 N         -2.6660774649        0.0229800334        0.6105273930
 C         -1.8128592032        0.2067781474       -0.5988287245
 C         -0.3646143723        0.2458539465       -0.2796912835
 C          0.4015854533        1.3824113235       -0.0506392924
 C          1.7450835220        1.1098754845        0.2303539494
 C          2.0456526197       -0.2392460987        0.2282953540
 S          0.6375566685       -1.1509198122       -0.1241451078
 H         -2.4346011307       -0.8570873791        1.0932672437
 H         -3.6690356656       -0.0051374570        0.3716906830
 H         -2.5250595958        0.7910327497        1.2825735090
 H         -2.1007614371        1.1301445161       -1.1167566683
 H         -2.0035084515       -0.6089146001       -1.3078947231
 H         -0.0029734650        2.3844078297       -0.0940536412
 H          2.4804344638        1.8810309283        0.4266333969
 H          3.0152442181       -0.6686676716        0.4159894466
  15
  -20.486023540000001        7.5737172922050511E-002 !gc
 N         -2.6661321869        0.0233350952        0.6105746356
 C         -1.8128684322        0.2065708549       -0.5988346969
 C         -0.3646306671        0.2457257902       -0.2796753915
 C          0.4014555539        1.3823349379       -0.0505053901
 C          1.7449825773        1.1099049377        0.2304515199
 C          2.0456872222       -0.2391862747        0.2282570005
 S          0.6376773262       -1.1509649110       -0.1242559616
 H         -2.5250746577        0.7915206171        1.2821971031
 H         -2.4347156119       -0.8567677731        1.0937895170
 H         -3.6690195492       -0.0047823776        0.3717353355
 H         -2.1007163773        1.1297203840       -1.1171791862
 H         -2.0035268874       -0.6094252271       -1.3075492542
 H         -0.0032181221        2.3842889122       -0.0938264128
 H          2.4802507186        1.8811179649        0.4268154790
 H          3.0153246707       -0.6685194472        0.4159166674
  15
  -20.485815160000001        6.0749718873902576E-002 !gc
 N         -2.6739954000        0.0889134749        0.6190968086
 C         -1.8148254106        0.1655408390       -0.5975913512
 C         -0.3675623034        0.2224096731       -0.2770512586
 C          0.3781478447        1.3678922215       -0.0269744952
 C          1.7262551063        1.1142883810        0.2497743901
 C          2.0509926796       -0.2289657033        0.2231238932
 S          0.6594556998       -1.1590759030       -0.1463371653
 H         -2.4473868826       -0.7472396060        1.1764535564
 H         -3.6759236560        0.0431111157        0.3786884533
 H         -2.5340820929        0.9112253719        1.2237811139
 H         -2.0941161881        1.0438415003       -1.1929195156
 H         -2.0083077866       -0.7057844495       -1.2361800713
 H         -0.0442547201        2.3630740553       -0.0529516576
 H          2.4476802485        1.8947525211        0.4603891216
 H          3.0281874338       -0.6442828927        0.4029811047
  15
  -20.484063330000001        9.5160989005149479E-003 !mtd12
 N         -2.5925367617       -0.6320683048       -0.1253851867
 C         -1.8295083575        0.6482862187       -0.0647470365
 C         -0.3563152590        0.4619882521       -0.0435456329
 C          0.5897590051        1.4612160342       -0.2438660673
 C          1.9133454431        1.0141914104       -0.1643385166
 C          2.0224871224       -0.3379620035        0.0991700245
 S          0.4617049622       -1.0313339510        0.2444167468
 H         -2.3420110455       -1.1697808641       -0.9676274005
 H         -3.6108976703       -0.4702756843       -0.1487418343
 H         -2.3895997876       -1.2218699863        0.6947014450
 H         -2.1336444570        1.2101627895        0.8274398298
 H         -2.1021344939        1.2709033467       -0.9261882315
 H          0.3243397147        2.4907251872       -0.4431732507
 H          2.7702072895        1.6642144724       -0.2960834888
 H          2.9430823235       -0.8874895856        0.2007872669
