  12
        -15.46401266
 N         -1.6772835759       -0.8052594019       -0.1562465360
 C         -1.1732369115        0.4942814962        0.3920568853
 C          0.1279019235        0.9681314663       -0.2686017596
 C          1.2186033214        0.0958022812       -0.0554938522
 N          2.1027192578       -0.6261220593        0.1239981643
 H         -1.8689848476       -0.7239015236       -1.1585556092
 H         -2.5411250442       -1.0911009877        0.3135919107
 H         -0.9805321546       -1.5438693316       -0.0218694309
 H         -1.0113969049        0.3803703281        1.4740087561
 H         -1.9594473421        1.2552064832        0.2760934465
 H          0.4069682400        1.9640700120        0.1053253513
 H         -0.0225391132        1.0819826541       -1.3503263292
