  12
  -15.464012660000000       0.12800253456653513      !md1
 N         -1.6772835759       -0.8052594019       -0.1562465360
 C         -1.1732369115        0.4942814962        0.3920568853
 C          0.1279019235        0.9681314663       -0.2686017596
 C          1.2186033214        0.0958022812       -0.0554938522
 N          2.1027192578       -0.6261220593        0.1239981643
 H         -1.8689848476       -0.7239015236       -1.1585556092
 H         -2.5411250442       -1.0911009877        0.3135919107
 H         -0.9805321546       -1.5438693316       -0.0218694309
 H         -1.0113969049        0.3803703281        1.4740087561
 H         -1.9594473421        1.2552064832        0.2760934465
 H          0.4069682400        1.9640700120        0.1053253513
 H         -0.0225391132        1.0819826541       -1.3503263292
  12
  -15.464011940000001       0.12790504654176132      !gc
 N         -1.6775512496       -0.8052035898       -0.1562910596
 C         -1.1731301916        0.4941811542        0.3921021953
 C          0.1279658763        0.9680942340       -0.2686292572
 C          1.2185708738        0.0956498750       -0.0555328828
 N          2.1029198071       -0.6259515765        0.1240558223
 H         -2.5411657861       -1.0909466833        0.3139581870
 H         -0.9808470165       -1.5439251498       -0.0225747463
 H         -1.8698336966       -0.7235077406       -1.1585086697
 H         -1.0112150707        0.3801204242        1.4740270625
 H         -1.9592419346        1.2552313946        0.2763169494
 H          0.4070362981        1.9639739806        0.1054472676
 H         -0.0225043465        1.0821222656       -1.3503276291
  12
  -15.464010050000001       0.12764949358813785      !gc
 N         -1.6774358569       -0.8052912385       -0.1561938347
 C         -1.1732913638        0.4943064536        0.3919144678
 C          0.1280119289        0.9681527705       -0.2684886627
 C          1.2185124330        0.0955711556       -0.0554567227
 N          2.1029285220       -0.6259754168        0.1239339047
 H         -0.9801229735       -1.5435124728       -0.0230712479
 H         -1.8703239989       -0.7235590966       -1.1582626188
 H         -2.5405986463       -1.0918049686        0.3145311477
 H         -1.0117824617        0.3806101703        1.4739367033
 H         -1.9594279164        1.2552437015        0.2755594142
 H          0.4071112894        1.9639333726        0.1058269393
 H         -0.0222832651        1.0824544793       -1.3501846754
  12
  -15.464000459999999       0.12636064595702290      !md1
 N         -1.6737318129       -0.8015871277        0.1934024151
 C         -1.1776568312        0.4847331735       -0.3923639718
 C          0.1305265372        0.9759620559        0.2411383786
 C          1.2182885140        0.0970152537        0.0406249113
 N          2.1002865795       -0.6302214831       -0.1276244590
 H         -0.9770326862       -1.5420293120        0.0695957204
 H         -2.5420842697       -1.1006342934       -0.2597205279
 H         -1.8545443363       -0.6959401588        1.1955975077
 H         -1.9634933592        1.2475777907       -0.2862316326
 H         -1.0277748797        0.3446738845       -1.4728907865
 H         -0.0081532402        1.1199430353        1.3207385995
 H          0.4056197004        1.9611179096       -0.1631870141
  12
  -15.464000140000000       0.12631786466201567      !md4
 N         -1.6733798779       -0.8017822863        0.1932423558
 C         -1.1779583952        0.4850430132       -0.3919685783
 C          0.1305598029        0.9760434832        0.2409665353
 C          1.2181878943        0.0968972210        0.0405834480
 N          2.1001901904       -0.6303060604       -0.1275826750
 H         -1.8512915272       -0.6975121111        1.1960503550
 H         -0.9776785441       -1.5426486526        0.0662784889
 H         -2.5432490836       -1.0994068465       -0.2580028409
 H         -1.9638004311        1.2477335956       -0.2848869589
 H         -1.0287677329        0.3456702835       -1.4726544334
 H         -0.0078537767        1.1206448110        1.3205213351
 H          0.4060230660        1.9608591498       -0.1639303190
  12
  -15.463999149999999       0.12618560173061655      !gc
 N         -1.6731308152       -0.8019190202        0.1932185103
 C         -1.1779908594        0.4850945885       -0.3918548395
 C          0.1305827743        0.9762374344        0.2408884189
 C          1.2181110573        0.0969711724        0.0405220135
 N          2.0999540673       -0.6304643569       -0.1275372623
 H         -2.5427063494       -1.0998821685       -0.2582051915
 H         -1.8513625960       -0.6975971690        1.1959750459
 H         -0.9770897381       -1.5425767251        0.0665597539
 H         -1.9639392346        1.2476327835       -0.2844665746
 H         -1.0289716142        0.3459738986       -1.4725993022
 H         -0.0076851463        1.1211386623        1.3204212209
 H          0.4059856095        1.9609437863       -0.1643014455
  12
  -15.463559070000001        7.9206904010953802E-002 !md3
 N         -2.3496707809        0.0192026504       -0.0746651910
 C         -0.9497277760       -0.3772370155        0.2846671307
 C          0.1269049257        0.4891854603       -0.3764881404
 C          1.4431181123        0.0944626782       -0.0423652201
 N          2.5140667160       -0.2376660419        0.2371501711
 H         -2.5360437577        0.9832856342        0.2126011136
 H         -3.0305647155       -0.5892848033        0.3878765542
 H         -2.4947110458       -0.0501436729       -1.0851946525
 H         -0.7927383856       -1.4295503625        0.0061101112
 H         -0.8326973963       -0.3338502968        1.3773408070
 H         -0.0076807725        1.5402965636       -0.0892042936
 H          0.0178700090        0.4554421835       -1.4684914070
  12
  -15.463559020000000        7.9202713304908690E-002 !md3
 N         -2.3496449293        0.0190756448       -0.0748147458
 C         -0.9497212701       -0.3770435092        0.2849281722
 C          0.1268808374        0.4891297935       -0.3765784557
 C          1.4431522816        0.0945072261       -0.0424435281
 N          2.5140279320       -0.2376862077        0.2372277333
 H         -2.4952610719       -0.0531896942       -1.0849941131
 H         -2.5354996519        0.9841687189        0.2095427060
 H         -3.0305179662       -0.5876717033        0.3900878407
 H         -0.7925321921       -1.4294549690        0.0068374294
 H         -0.8328416215       -0.3331393556        1.3776075767
 H         -0.0075399846        1.5403429816       -0.0895948876
 H          0.0176084819        0.4550110101       -1.4685491783
  12
  -15.463558620000001        7.9169195638048084E-002 !md3
 N         -2.3496054717        0.0196757350       -0.0737585657
 C         -0.9495251760       -0.3784503721        0.2831146246
 C          0.1268454447        0.4899257245       -0.3759271677
 C          1.4431528766        0.0949656230       -0.0423715912
 N          2.5138191317       -0.2382353784        0.2369872343
 H         -3.0301952547       -0.5883307685        0.3897685602
 H         -2.4963769797       -0.0487890413       -1.0840492940
 H         -2.5348084644        0.9838247552        0.2143352946
 H         -0.7930423877       -1.4298946079        0.0009848162
 H         -0.8316553011       -0.3385790310        1.3758324291
 H         -0.0080415803        1.5403442279       -0.0862442311
 H          0.0179671551        0.4586015684       -1.4680324326
