  13
        -15.04548892
 N          1.6805029438        0.8210095904        0.1543041647
 C          1.1829864965       -0.4722389145       -0.4008877999
 C         -0.1071975410       -0.9562688334        0.2668350881
 C         -1.2382208597       -0.1143841360        0.0596061733
 C         -2.2169730462        0.5846761389       -0.1140121820
 H          1.8891187812        0.7388907739        1.1600854902
 H          0.9800134412        1.5679278191        0.0415292719
 H          2.5442536580        1.1312387948       -0.3168904938
 H          1.9731487397       -1.2291653691       -0.2978933804
 H          1.0154937772       -0.3579109719       -1.4802930527
 H          0.0564801092       -1.0583654274        1.3470625871
 H         -0.3627199985       -1.9637490093       -0.0895037535
 H         -3.0945658910        1.1805532569       -0.2626128429
  13
        -15.04160863
 N          2.3427464926       -0.0079679776        0.0686702290
 C          0.9508403460        0.3870179950       -0.3030511006
 C         -0.1225020508       -0.4581759809        0.3837512231
 C         -1.4630534848       -0.1041907456        0.0497582359
 C         -2.6101075012        0.1872153711       -0.2262004291
 H          3.0441552919        0.5785152710       -0.4081085283
 H          2.5341661675       -0.9875186283       -0.1872031383
 H          2.4996935999        0.0861102958        1.0828699044
 H          0.8331945432        0.3159695489       -1.3925716721
 H          0.7974157311        1.4463755202       -0.0573176901
 H         -0.0034261145       -0.3888887176        1.4723436999
 H          0.0311755738       -1.5165696073        0.1386997182
 H         -3.6252347575        0.4353235755       -0.4620720379
