  13
        -15.04548892
 N          1.6805029438        0.8210095904        0.1543041647
 C          1.1829864965       -0.4722389145       -0.4008877999
 C         -0.1071975410       -0.9562688334        0.2668350881
 C         -1.2382208597       -0.1143841360        0.0596061733
 C         -2.2169730462        0.5846761389       -0.1140121820
 H          1.8891187812        0.7388907739        1.1600854902
 H          0.9800134412        1.5679278191        0.0415292719
 H          2.5442536580        1.1312387948       -0.3168904938
 H          1.9731487397       -1.2291653691       -0.2978933804
 H          1.0154937772       -0.3579109719       -1.4802930527
 H          0.0564801092       -1.0583654274        1.3470625871
 H         -0.3627199985       -1.9637490093       -0.0895037535
 H         -3.0945658910        1.1805532569       -0.2626128429
