  13
  -15.045488920000000       0.16828349669634238      !mtd9
 N          1.6805029438        0.8210095904        0.1543041647
 C          1.1829864965       -0.4722389145       -0.4008877999
 C         -0.1071975410       -0.9562688334        0.2668350881
 C         -1.2382208597       -0.1143841360        0.0596061733
 C         -2.2169730462        0.5846761389       -0.1140121820
 H          1.8891187812        0.7388907739        1.1600854902
 H          0.9800134412        1.5679278191        0.0415292719
 H          2.5442536580        1.1312387948       -0.3168904938
 H          1.9731487397       -1.2291653691       -0.2978933804
 H          1.0154937772       -0.3579109719       -1.4802930527
 H          0.0564801092       -1.0583654274        1.3470625871
 H         -0.3627199985       -1.9637490093       -0.0895037535
 H         -3.0945658910        1.1805532569       -0.2626128429
  13
  -15.045474960000000       0.16581581722133074      !md1
 N          1.6829057636        0.8198459322        0.1550057702
 C          1.1820981901       -0.4713257765       -0.4020706686
 C         -0.1072190025       -0.9549399168        0.2676499011
 C         -1.2388333977       -0.1140156515        0.0597239246
 C         -2.2186225568        0.5833430589       -0.1146177024
 H          2.5458857419        1.1296544493       -0.3173191380
 H          1.8938272429        0.7351082298        1.1601282286
 H          0.9832342504        1.5683232683        0.0455342728
 H          1.9714060973       -1.2296241575       -0.3026691305
 H          1.0121560588       -0.3543717185       -1.4808090341
 H          0.0575126522       -1.0550099527        1.3479003300
 H         -0.3625328513       -1.9632035476       -0.0866154205
 H         -3.0958602718        1.1794912582       -0.2642176928
  13
  -15.045470330000001       0.16500539914240717      !md4
 N          1.6833426330        0.8197012637        0.1550889817
 C          1.1819903234       -0.4711622906       -0.4022215966
 C         -0.1072450747       -0.9547174628        0.2677596320
 C         -1.2390690372       -0.1140992026        0.0597416874
 C         -2.2188677603        0.5832172586       -0.1147045994
 H          0.9839562233        1.5681809842        0.0462194710
 H          2.5462923479        1.1294026998       -0.3174398335
 H          1.8946666176        0.7345047014        1.1603102400
 H          1.9711417790       -1.2296859662       -0.3033061915
 H          1.0117543559       -0.3538316968       -1.4808707493
 H          0.0576739815       -1.0546489806        1.3479886853
 H         -0.3625447194       -1.9630434964       -0.0863461832
 H         -3.0960565349        1.1793956476       -0.2644646039
  13
  -15.045468899999999       0.16475589872123927      !md6
 N          1.6809939827        0.8168606243       -0.1912938812
 C          1.1874150841       -0.4647364772        0.3936451791
 C         -0.1107796345       -0.9588901044       -0.2507687823
 C         -1.2396544701       -0.1147533497       -0.0409512710
 C         -2.2172628231        0.5851434156        0.1354578822
 H          0.9831437780        1.5671382302       -0.0849573397
 H          1.8784414598        0.7154433662       -1.1976060896
 H          2.5504569144        1.1341655782        0.2644273217
 H          1.0318956825       -0.3299587497        1.4723734904
 H          1.9752916628       -1.2249289276        0.2962520749
 H         -0.3611535707       -1.9614002724        0.1230348966
 H          0.0393499776       -1.0762502977       -1.3313325576
 H         -3.0925774009        1.1835320034        0.2873435701
  13
  -15.045466169999999       0.16428062686247044      !md2
 N          1.6809679821        0.8168922547       -0.1912998590
 C          1.1874451259       -0.4647423635        0.3936039133
 C         -0.1107753470       -0.9589242121       -0.2507241114
 C         -1.2398026267       -0.1149776958       -0.0409667952
 C         -2.2171959567        0.5852785515        0.1354506156
 H          2.5496508385        1.1346791751        0.2649988523
 H          0.9827014377        1.5669247154       -0.0857201729
 H          1.8794486048        0.7152291099       -1.1976024374
 H          1.0320762785       -0.3300591808        1.4723585407
 H          1.9753383451       -1.2249057317        0.2961415498
 H         -0.3610642618       -1.9614297555        0.1231366555
 H          0.0393004656       -1.0763586078       -1.3312722237
 H         -3.0916822506        1.1847613482        0.2878086924
  13
  -15.045461970000000       0.16355211513721349      !mtd8
 N          1.6813178723        0.8168128023       -0.1912398595
 C          1.1874997893       -0.4647353551        0.3936157485
 C         -0.1107812639       -0.9586694579       -0.2507921810
 C         -1.2398061935       -0.1147456012       -0.0408897311
 C         -2.2175351798        0.5850606089        0.1354355289
 H          1.8793938871        0.7152702828       -1.1973854156
 H          2.5502896595        1.1342374495        0.2648523049
 H          0.9831993853        1.5672488849       -0.0853174262
 H          1.0320547556       -0.3300236105        1.4723635285
 H          1.9752670517       -1.2250329216        0.2961208944
 H         -0.3611238230       -1.9612593195        0.1228254366
 H          0.0392655280       -1.0757852661       -1.3313950363
 H         -3.0939353069        1.1820016837        0.2868829238
  13
  -15.041608630000001        2.7719392793237752E-003 !md2
 N          2.3427464926       -0.0079679776        0.0686702290
 C          0.9508403460        0.3870179950       -0.3030511006
 C         -0.1225020508       -0.4581759809        0.3837512231
 C         -1.4630534848       -0.1041907456        0.0497582359
 C         -2.6101075012        0.1872153711       -0.2262004291
 H          3.0441552919        0.5785152710       -0.4081085283
 H          2.5341661675       -0.9875186283       -0.1872031383
 H          2.4996935999        0.0861102958        1.0828699044
 H          0.8331945432        0.3159695489       -1.3925716721
 H          0.7974157311        1.4463755202       -0.0573176901
 H         -0.0034261145       -0.3888887176        1.4723436999
 H          0.0311755738       -1.5165696073        0.1386997182
 H         -3.6252347575        0.4353235755       -0.4620720379
  13
  -15.041607839999999        2.7696229786794233E-003 !md6
 N          2.3427001958       -0.0079305733        0.0683022558
 C          0.9505948591        0.3874587336       -0.3023760938
 C         -0.1224479474       -0.4587189268        0.3836277912
 C         -1.4630799538       -0.1048805189        0.0496834707
 C         -2.6098709930        0.1878047889       -0.2260924996
 H          2.5346352699       -0.9867315124       -0.1899241339
 H          2.4995512692        0.0836174003        1.0825238478
 H          3.0438637536        0.5802815677       -0.4072503878
 H          0.8325830729        0.3178459042       -1.3919474225
 H          0.7970975256        1.4464766288       -0.0552241283
 H         -0.0037029431       -0.3899012587        1.4722933571
 H          0.0319606340       -1.5168904655        0.1381350110
 H         -3.6244274830        0.4365131020       -0.4638204489
  13
  -15.041606290000001        2.7650839609933641E-003 !md5
 N          2.3427038530       -0.0082989168        0.0679804004
 C          0.9506647049        0.3879937881       -0.3018278975
 C         -0.1224473639       -0.4588175603        0.3833253013
 C         -1.4631158656       -0.1046976779        0.0498990350
 C         -2.6099094181        0.1877480363       -0.2261321352
 H          2.5008314794        0.0839316763        1.0819153352
 H          3.0439470728        0.5783439383       -0.4089176566
 H          2.5332966358       -0.9877844644       -0.1896512134
 H          0.8323184241        0.3199050705       -1.3914605564
 H          0.7976338579        1.4467349768       -0.0531967786
 H         -0.0033787862       -0.3916895869        1.4720626418
 H          0.0315185729       -1.5166893614        0.1361809838
 H         -3.6246104143        0.4368746094       -0.4626988289
