  39
        -50.37630897
 N          1.0563154106       -0.6085154335       -1.8008827373
 C          2.1145463131       -1.6565292931       -1.7358565291
 C          2.1014650486       -2.4577222540       -0.4362184689
 C          2.4261764104       -1.6349681934        0.8284935214
 C          1.2074796086       -1.2508312503        1.6714074782
 N          0.3063879796       -0.2956022866        1.0208307133
 C          0.4409556270        1.1628711554        1.2722072294
 C         -0.8580212376        1.7657462582        0.6080080525
 C         -0.5919594898        2.6243221763       -0.5926458338
 C          0.6309884993        2.9717171529       -0.9875400059
 C          1.8097257583        2.5459819363       -0.2750758549
 C          1.7374646614        1.7249561976        0.7672490569
 C         -0.9687532577       -0.6236623335        0.5263821405
 C         -1.6894736522        0.5490233929        0.2603485688
 C         -2.9699882856        0.4798190810       -0.2429302049
 C         -3.5328055028       -0.7604642236       -0.4855365378
 C         -2.8247921413       -1.9210072284       -0.2213399749
 C         -1.5452103752       -1.8657695175        0.2873461449
 H          1.0021565928       -0.1706969459       -2.7342728572
 H          1.2247294948        0.1463659650       -1.1123796798
 H          0.1322849629       -1.0097622401       -1.5859142113
 H          3.0959260708       -1.1885590945       -1.8748893834
 H          1.9898386519       -2.3333167395       -2.5906273001
 H          2.8131918563       -3.2891182476       -0.5274156502
 H          1.1267677648       -2.9408109748       -0.3160867313
 H          2.9739638520       -0.7323731412        0.5405705517
 H          3.1266063187       -2.1962790877        1.4608747962
 H          1.5219533154       -0.8092621067        2.6223020972
 H          0.6343144570       -2.1426222161        1.9379628443
 H          0.3889189317        1.3050943941        2.3630125869
 H         -1.4010586209        2.3654422675        1.3525415014
 H         -1.4444383682        2.9576719430       -1.1630771272
 H          0.7547175020        3.5977093839       -1.8565750143
 H          2.7668748784        2.9299927739       -0.5900351315
 H          2.6393558643        1.4567623296        1.2929427865
 H         -3.5205219196        1.3842985677       -0.4361103024
 H         -4.5356332983       -0.8236870174       -0.8757517543
 H         -3.2847806808       -2.8785793204       -0.4058119616
 H         -1.0049882088       -2.7681448120        0.5109256824
  39
        -50.37617158
 N          1.0668582990       -0.6178894028       -1.8475751028
 C          2.2728705915       -1.4853575648       -1.7303958201
 C          2.8048656450       -1.5865670426       -0.3031161194
 C          1.8335387515       -2.2704442924        0.6846979844
 C          1.1479337781       -1.3103868478        1.6593621405
 N          0.2732687613       -0.3298605597        1.0130951220
 C          0.4444475766        1.1292713571        1.2461006730
 C         -0.8368811498        1.7527596282        0.5666453648
 C         -0.5454785073        2.5440456773       -0.6741117811
 C          0.6870295074        2.8485556020       -1.0756489939
 C          1.8512069698        2.4412197729       -0.3293946378
 C          1.7545057750        1.6647825763        0.7450619749
 C         -1.0223079523       -0.6317543350        0.5584882010
 C         -1.7154560819        0.5536093161        0.2773374673
 C         -3.0101470037        0.5063304950       -0.1909066628
 C         -3.6127628556       -0.7244391519       -0.3823139314
 C         -2.9297217978       -1.8969613835       -0.1041755786
 C         -1.6353099994       -1.8637649425        0.3678611924
 H          0.2943758821       -0.9726708661       -1.2598264625
 H          0.7241534724       -0.5492608002       -2.8191308807
 H          1.2587178715        0.3359454150       -1.5068857213
 H          3.0522476941       -1.0982216244       -2.3984767310
 H          2.0346159370       -2.4868546334       -2.1069308967
 H          3.0514087802       -0.5853378704        0.0635796711
 H          3.7630023694       -2.1228250137       -0.3150734627
 H          2.3678541060       -3.0378863411        1.2598173073
 H          1.0780855320       -2.8248064771        0.1192279542
 H          1.8998255640       -0.7683912739        2.2391397055
 H          0.5441616614       -1.8581303618        2.3900061865
 H          0.3875001643        1.2827212378        2.3352376421
 H         -1.3494517802        2.4063662273        1.2868195403
 H         -1.3873248358        2.8616714909       -1.2687331852
 H          0.8294145389        3.4292601059       -1.9729313027
 H          2.8163436127        2.8065106628       -0.6424085771
 H          2.6453880655        1.4103277645        1.2954303432
 H         -3.5404374217        1.4200383811       -0.3969053880
 H         -4.6270320760       -0.7705385785       -0.7443204515
 H         -3.4204043548       -2.8460714619       -0.2490474568
 H         -1.1149026931       -2.7729084503        0.6115854597
  39
        -50.37597269
 N          1.1657726350       -0.8394523136       -1.9289430084
 C          2.4658844943       -1.5172006854       -1.6571898848
 C          2.3982773655       -2.4124908288       -0.4183859310
 C          2.4544242237       -1.6452071695        0.9226208313
 C          1.1068742766       -1.3409075124        1.5912187489
 N          0.2719125656       -0.3322050044        0.9216078510
 C          0.4437524229        1.1136050366        1.2289912845
 C         -0.8662250457        1.7692491040        0.6405213520
 C         -0.6313665180        2.6368527767       -0.5602298939
 C          0.5816622387        2.9698976445       -0.9956194774
 C          1.7770009875        2.5248329015       -0.3240440357
 C          1.7286891923        1.6846324236        0.7045044783
 C         -1.0352971429       -0.6092039599        0.4759883220
 C         -1.7479043170        0.5857414999        0.3081996973
 C         -3.0627256546        0.5615206654       -0.1024112299
 C         -3.6686973144       -0.6570210695       -0.3512750159
 C         -2.9663246417       -1.8399217120       -0.1917972382
 C         -1.6513374096       -1.8288606560        0.2207901461
 H          0.7691410595       -0.5607635526       -1.0096831656
 H          0.4883741891       -1.4811370639       -2.3687927440
 H          1.2579023648       -0.0050561491       -2.5297575853
 H          3.2548149787       -0.7681145358       -1.5222876593
 H          2.7585880781       -2.0923396251       -2.5446582770
 H          3.2265960359       -3.1321631824       -0.4597493742
 H          1.4915025891       -3.0248157108       -0.4569662703
 H          3.0103346272       -0.7143913127        0.7794424994
 H          3.0632834610       -2.2202279868        1.6330384563
 H          1.2641016008       -0.9911880501        2.6166222490
 H          0.5272465560       -2.2620355634        1.6886807401
 H          0.4316991654        1.2090374993        2.3260121114
 H         -1.3541443414        2.3723558465        1.4195246002
 H         -1.4988164982        2.9834406443       -1.0993231300
 H          0.6845857284        3.5997413431       -1.8645369911
 H          2.7271029222        2.9102575383       -0.6575482758
 H          2.6426275397        1.4101065179        1.2044838522
 H         -3.6057680717        1.4834483975       -0.2193059070
 H         -4.6983435618       -0.6855766358       -0.6689071242
 H         -3.4559709842       -2.7802898076       -0.3878022351
 H         -1.1067591657       -2.7481749603        0.3418186305
  39
        -50.37574804
 N          1.4241205972       -0.4977729449       -1.8624520250
 C          2.3047128128       -1.6949193893       -1.7221863936
 C          2.8376714514       -1.8481753711       -0.2970048350
 C          1.7794876335       -2.3533514669        0.7124675766
 C          1.1533489523       -1.2857581804        1.6188030573
 N          0.2762614154       -0.3200632066        0.9458463523
 C          0.4396840884        1.1353740803        1.2080834579
 C         -0.8692300769        1.7646344733        0.5909441926
 C         -0.6292561929        2.6187620152       -0.6180667774
 C          0.5854408122        2.9672999748       -1.0367054636
 C          1.7782949491        2.5341850492       -0.3522559130
 C          1.7277122102        1.6947973772        0.6770733680
 C         -1.0273446907       -0.6218967644        0.5119469279
 C         -1.7372463637        0.5645384329        0.2783597461
 C         -3.0507286998        0.5204039581       -0.1349647586
 C         -3.6596201905       -0.7086071970       -0.3159469298
 C         -2.9649412972       -1.8823664166       -0.0757054768
 C         -1.6518072695       -1.8515437102        0.3418950021
 H          1.9750305668        0.3666996209       -1.9728390543
 H          0.8881002235       -0.4008211058       -0.9764278981
 H          0.7671646611       -0.5649920380       -2.6560966858
 H          3.1257016188       -1.6229358998       -2.4465504807
 H          1.7493845536       -2.5983280164       -2.0004553718
 H          3.2501415895       -0.8934529421        0.0449078290
 H          3.6925896175       -2.5370460288       -0.3095457145
 H          2.2319126694       -3.1238145769        1.3507405350
 H          0.9907595305       -2.8795391552        0.1669160322
 H          1.9432482097       -0.7306752533        2.1315379243
 H          0.5592214847       -1.7536563518        2.4106438170
 H          0.4198204490        1.2624519470        2.3019590850
 H         -1.3712657215        2.3762196173        1.3543736049
 H         -1.4936154035        2.9510182381       -1.1709217632
 H          0.6919050522        3.5932576874       -1.9079914824
 H          2.7294760417        2.9166169897       -0.6860867471
 H          2.6423589106        1.4033280371        1.1664762532
 H         -3.5923076216        1.4356490156       -0.3009184760
 H         -4.6880187244       -0.7523588954       -0.6359154400
 H         -3.4602973102       -2.8308183131       -0.2082530594
 H         -1.1235955818       -2.7627733137        0.5568939665
  39
        -50.37206873
 N          1.3987628921       -0.8742741436       -1.8841295164
 C          1.6749471309       -2.3004506162       -1.5579095446
 C          2.6498419991       -2.4594283812       -0.3862140097
 C          2.5593572368       -1.3908311426        0.7146123296
 C          1.2122370782       -1.2774064450        1.4527662138
 N          0.2927117812       -0.2712626863        0.8931530939
 C          0.4002186280        1.1613646389        1.2792268797
 C         -0.9063702032        1.7975245529        0.6640659471
 C         -0.6519465590        2.6919426416       -0.5124899657
 C          0.5655633038        3.0849355395       -0.8805400872
 C          1.7443477571        2.6799181136       -0.1558326249
 C          1.6826002655        1.8081410127        0.8454084059
 C         -0.9990165788       -0.5791350409        0.4256724718
 C         -1.7459741440        0.5983312120        0.2819568725
 C         -3.0563969372        0.5467243965       -0.1399727999
 C         -3.6255903803       -0.6822784330       -0.4215270397
 C         -2.8925332380       -1.8484162246       -0.2780459587
 C         -1.5817342480       -1.8098090292        0.1461626301
 H          2.2620459842       -0.3558763506       -2.1061502630
 H          0.9735814375       -0.4709486122       -1.0273798861
 H          0.7359825242       -0.7625390843       -2.6675365962
 H          2.0498930175       -2.8180964611       -2.4496684578
 H          0.7240928478       -2.7923916562       -1.3212734837
 H          3.6726140541       -2.4585810349       -0.7840931961
 H          2.5274843208       -3.4524098206        0.0625745772
 H          2.8112055419       -0.4157606256        0.2878123622
 H          3.3532503939       -1.5828463649        1.4483095444
 H          1.3691835462       -1.0050524735        2.5017132133
 H          0.7136275046       -2.2490789866        1.4789844656
 H          0.3349543285        1.1972349825        2.3780457353
 H         -1.4321519606        2.3745805497        1.4380495107
 H         -1.5061694753        3.0073388648       -1.0904034323
 H          0.6842588267        3.7318427528       -1.7347975881
 H          2.6905535835        3.1202853716       -0.4264904508
 H          2.5803898518        1.5596826541        1.3873507416
 H         -3.6248080037        1.4554058697       -0.2386622970
 H         -4.6514080536       -0.7326343350       -0.7486985845
 H         -3.3555920328       -2.7979152211       -0.4936322108
 H         -1.0208528084       -2.7182914343        0.2722148521
  39
        -50.37196535
 N          1.3881671818       -0.8903059149       -1.8884895703
 C          1.6781049691       -2.3119131551       -1.5542571980
 C          2.6604503725       -2.4544979795       -0.3868635993
 C          2.5621076663       -1.3818086009        0.7091996934
 C          1.2141455181       -1.2764408180        1.4474504480
 N          0.2922822998       -0.2703503301        0.8914170042
 C          0.3986512402        1.1614935422        1.2807477197
 C         -0.9069361056        1.7983860131        0.6643706380
 C         -0.6505540484        2.6926600409       -0.5118628216
 C          0.5675317390        3.0865380374       -0.8770904150
 C          1.7448774787        2.6826139866       -0.1494207260
 C          1.6815045011        1.8100642543        0.8510422656
 C         -0.9996879219       -0.5781381912        0.4244391669
 C         -1.7465689926        0.5994966751        0.2813636871
 C         -3.0571668532        0.5483192468       -0.1400619694
 C         -3.6268283237       -0.6804978444       -0.4214401055
 C         -2.8941283156       -1.8468532259       -0.2779612496
 C         -1.5831202670       -1.8086480019        0.1456546014
 H          2.2457830497       -0.3663569113       -2.1192380854
 H          0.9645257757       -0.4839736499       -1.0323400747
 H          0.7200477060       -0.7896156592       -2.6688505473
 H          2.0527231333       -2.8324261324       -2.4444762530
 H          0.7328409930       -2.8103579150       -1.3090094342
 H          3.6812821507       -2.4436383774       -0.7895102062
 H          2.5515033888       -3.4467327115        0.0670124797
 H          2.8048515804       -0.4066089523        0.2773576136
 H          3.3584195652       -1.5632139557        1.4429538863
 H          1.3693232679       -1.0086847040        2.4978386885
 H          0.7185390578       -2.2497694745        1.4684657553
 H          0.3310805046        1.1948423443        2.3795120565
 H         -1.4332052243        2.3757276107        1.4378005428
 H         -1.5036574581        3.0071656403       -1.0918970531
 H          0.6878177351        3.7333602255       -1.7311866707
 H          2.6911937873        3.1247304100       -0.4168234174
 H          2.5780232270        1.5624579027        1.3954857661
 H         -3.6253597368        1.4571747802       -0.2383971424
 H         -4.6527927915       -0.7305242362       -0.7481988523
 H         -3.3577275948       -2.7962606004       -0.4927845524
 H         -1.0227722403       -2.7173665121        0.2722893416
  39
        -50.37186443
 N          1.3870695904       -0.9056789110       -1.8902551281
 C          1.6840849498       -2.3244512707       -1.5501325591
 C          2.6674446980       -2.4573260579       -0.3824764612
 C          2.5636523288       -1.3803406247        0.7088020841
 C          1.2139164947       -1.2769602769        1.4443922623
 N          0.2931252534       -0.2698061323        0.8882286180
 C          0.4005685931        1.1615150617        1.2793400344
 C         -0.9074510180        1.7994133542        0.6691317161
 C         -0.6557517867        2.6988307011       -0.5041986881
 C          0.5608385260        3.0942010357       -0.8727376956
 C          1.7411380245        2.6870385868       -0.1517216044
 C          1.6817399932        1.8110081421        0.8459411659
 C         -0.9995880320       -0.5764397480        0.4224292591
 C         -1.7470847219        0.6013139760        0.2838228298
 C         -3.0580013476        0.5509150963       -0.1367024489
 C         -3.6273110104       -0.6771921026       -0.4218410273
 C         -2.8938856012       -1.8436588483       -0.2830641885
 C         -1.5825733449       -1.8062600282        0.1396879521
 H          0.9631456375       -0.4967073477       -1.0355415561
 H          0.7172300658       -0.8116105593       -2.6699661848
 H          2.2420017261       -0.3790062324       -2.1251208397
 H          2.0610343938       -2.8468283753       -2.4382757082
 H          0.7413725230       -2.8265299729       -1.3025304725
 H          3.6881829182       -2.4432027759       -0.7852474528
 H          2.5633664615       -3.4481043538        0.0757134213
 H          2.8031326918       -0.4061734453        0.2728325352
 H          3.3596750762       -1.5552986510        1.4444213857
 H          1.3664957997       -1.0115961913        2.4957689757
 H          0.7184832281       -2.2504518469        1.4620764232
 H          0.3372452027        1.1931493075        2.3784106183
 H         -1.4321401661        2.3730105791        1.4464272012
 H         -1.5111906805        3.0160341881       -1.0793162187
 H          0.6775897794        3.7447379402       -1.7245060401
 H          2.6865109677        3.1294874247       -0.4219108347
 H          2.5805812820        1.5613138777        1.3855791159
 H         -3.6266976511        1.4598276050       -0.2315611850
 H         -4.6534800932       -0.7266023200       -0.7480496405
 H         -3.3571214727       -2.7925439833       -0.5009564910
 H         -1.0217418981       -2.7151652903        0.2626972366
  39
        -50.37160326
 N          1.3723330001       -0.9493558504       -1.8976474488
 C          1.6904291884       -2.3589872503       -1.5388062791
 C          2.6830547587       -2.4613113031       -0.3760873141
 C          2.5683334704       -1.3707921543        0.7003977488
 C          1.2176375713       -1.2739618883        1.4359207566
 N          0.2956021048       -0.2664281659        0.8820319555
 C          0.4023431506        1.1633361373        1.2791250061
 C         -0.9089668022        1.8024107645        0.6772756347
 C         -0.6632775140        2.7116279808       -0.4897530602
 C          0.5512179788        3.1116989939       -0.8600711131
 C          1.7351092790        2.6999398989       -0.1476356277
 C          1.6810044476        1.8165414314        0.8438092695
 C         -0.9979494334       -0.5723157385        0.4178875654
 C         -1.7470052720        0.6052066637        0.2858592567
 C         -3.0581550568        0.5554300999       -0.1340160736
 C         -3.6262502210       -0.6718658152       -0.4249766024
 C         -2.8914934086       -1.8381820237       -0.2922282732
 C         -1.5799803784       -1.8013694861        0.1299106093
 H          0.9513842228       -0.5308773926       -1.0459089755
 H          0.6945037712       -0.8759523609       -2.6726591772
 H          2.2184859221       -0.4161623519       -2.1489379453
 H          2.0683967871       -2.8895442803       -2.4216511437
 H          0.7563075115       -2.8699378237       -1.2773361971
 H          3.7010702473       -2.4373441525       -0.7851666633
 H          2.5965094878       -3.4470572201        0.0964034526
 H          2.7944881946       -0.3999030477        0.2500623631
 H          3.3678798867       -1.5249961357        1.4368115822
 H          1.3684466661       -1.0127386073        2.4885823785
 H          0.7241824140       -2.2485457997        1.4489926858
 H          0.3434059053        1.1899539903        2.3785774868
 H         -1.4328139599        2.3687424031        1.4604694787
 H         -1.5215471586        3.0327565679       -1.0584472206
 H          0.6635424712        3.7696092290       -1.7067624832
 H          2.6789615701        3.1448141400       -0.4191712870
 H          2.5826500032        1.5633557697        1.3771092622
 H         -3.6279733658        1.4641467844       -0.2238688060
 H         -4.6525314018       -0.7207872685       -0.7508987541
 H         -3.3537468269       -2.7864862625       -0.5146718277
 H         -1.0181439739       -2.7102276640        0.2483197484
  39
        -50.37151795
 N          1.5727829920       -0.6728975437       -1.8434742797
 C          2.8990404381       -0.9913977914       -1.2454940817
 C          2.8592826219       -2.2366503386       -0.3542776934
 C          1.5578448294       -2.4518923894        0.4332886310
 C          1.1632550175       -1.3370642716        1.4211655185
 N          0.2410480353       -0.3320161082        0.8702637782
 C          0.4286488585        1.1149550485        1.1619057054
 C         -0.8801815062        1.7704891175        0.5728744404
 C         -0.6500218542        2.5862809154       -0.6640502123
 C          0.5623012867        2.9131529043       -1.1064001865
 C          1.7585931711        2.4980440382       -0.4166681612
 C          1.7132235008        1.6787758394        0.6290049692
 C         -1.0874659475       -0.6111252574        0.5017044657
 C         -1.7874829554        0.5884288396        0.3084743174
 C         -3.1230543313        0.5706223937       -0.0291599459
 C         -3.7658119929       -0.6460230788       -0.1719960113
 C         -3.0825477156       -1.8329154651        0.0337673279
 C         -1.7472581670       -1.8280358607        0.3756501455
 H          1.5886889502        0.1769807989       -2.4286671952
 H          0.9320086287       -0.5134562978       -1.0414941907
 H          1.2091877867       -1.4542271734       -2.4097613156
 H          3.2334886658       -0.1273026643       -0.6597293260
 H          3.6465118494       -1.1042845678       -2.0405939370
 H          3.7059461602       -2.2189514107        0.3423027998
 H          3.0337551648       -3.1194701572       -0.9823974227
 H          1.6350053951       -3.4021808075        0.9775485373
 H          0.7377563158       -2.6054818062       -0.2742306994
 H          2.0576776097       -0.8322913248        1.7946308039
 H          0.6692210872       -1.7562699783        2.3042645568
 H          0.4215302434        1.2156393468        2.2587135983
 H         -1.3410012827        2.4136283276        1.3361509578
 H         -1.5187026816        2.9032828504       -1.2190297268
 H          0.6639612877        3.5099681722       -1.9984476955
 H          2.7068588037        2.8823039660       -0.7565482524
 H          2.6277832046        1.4118670724        1.1324953035
 H         -3.6545984234        1.4965230783       -0.1660255535
 H         -4.8114152887       -0.6695149033       -0.4329233146
 H         -3.6045316294       -2.7712483203       -0.0642427165
 H         -1.2307005720       -2.7495867942        0.5756771242
  39
        -50.37063647
 N          2.0579445242       -0.4425558843       -2.0392452477
 C          1.3610570111       -1.6698829957       -1.5542236141
 C          2.1307477272       -2.4119167368       -0.4667611258
 C          2.4178696899       -1.5926785133        0.7935944359
 C          1.1846617806       -1.2711786014        1.6383960135
 N          0.2727343896       -0.3117930467        1.0095968747
 C          0.4015480042        1.1454081193        1.2721690740
 C         -0.8887773030        1.7473798429        0.5915293653
 C         -0.6050438857        2.5674694536       -0.6316061402
 C          0.6226009646        2.9228579323       -1.0048347315
 C          1.7885457266        2.5383887057       -0.2484979451
 C          1.7025948681        1.7259810085        0.7996525664
 C         -1.0077245007       -0.6405083976        0.5297968021
 C         -1.7330298722        0.5312551245        0.2736015685
 C         -3.0284964452        0.4597538380       -0.1895477545
 C         -3.6005088823       -0.7819827835       -0.4024272056
 C         -2.8853770013       -1.9415415090       -0.1524355642
 C         -1.5901194420       -1.8839800987        0.3147204998
 H          2.0148928523        0.3122096261       -1.3376103574
 H          1.6264772294       -0.0756034352       -2.9022993055
 H          3.0499256579       -0.6337940968       -2.2467846154
 H          1.1835098571       -2.3393582320       -2.4053156067
 H          0.3688179995       -1.3868660276       -1.1919615543
 H          3.0786309908       -2.7598154557       -0.8951650824
 H          1.5931620232       -3.3248715004       -0.1850907969
 H          2.9191501558       -0.6619961502        0.5133504953
 H          3.1446242969       -2.1316344957        1.4149567055
 H          1.4786895426       -0.8555662405        2.6074142372
 H          0.6309186958       -2.1855175282        1.8659199438
 H          0.3272639473        1.2770140932        2.3631469355
 H         -1.4246994898        2.3752101962        1.3176692153
 H         -1.4473669177        2.8647560622       -1.2359836688
 H          0.7598595268        3.5223747483       -1.8903408457
 H          2.7445134035        2.9481403131       -0.5336453265
 H          2.5919164635        1.4886151980        1.3605567182
 H         -3.5832293331        1.3634614549       -0.3742013296
 H         -4.6148388095       -0.8470242179       -0.7613040857
 H         -3.3503084423       -2.9000135319       -0.3186444282
 H         -1.0378146510       -2.7843636619        0.5167163612
  39
        -50.36982864
 N          0.8284808451       -1.5584285166       -2.1266962983
 C          1.8904317090       -0.7643113419       -1.4424320193
 C          2.6844768636       -1.5732098746       -0.4208338847
 C          1.8396678756       -2.2284101126        0.6744736506
 C          1.2306524202       -1.2483801799        1.6773219490
 N          0.3081399835       -0.2833097630        1.0788547181
 C          0.4536029316        1.1798332530        1.2987667160
 C         -0.8100852992        1.7761508802        0.5634327616
 C         -0.4846385999        2.5792457834       -0.6605116160
 C          0.7569078123        2.9096979132       -1.0092586954
 C          1.8987050740        2.5112616288       -0.2243059632
 C          1.7753311589        1.7236813302        0.8389017118
 C         -0.9591838263       -0.6126030173        0.5708190812
 C         -1.6516430046        0.5595835926        0.2369489538
 C         -2.9235579589        0.4891441509       -0.2875414459
 C         -3.5065871996       -0.7511682030       -0.4777808464
 C         -2.8303494448       -1.9102565266       -0.1346799166
 C         -1.5597505475       -1.8539155866        0.3960348196
 H          0.4245596325       -1.0502372373       -2.9291846443
 H          0.0551426608       -1.7621108699       -1.4764970850
 H          1.1984704008       -2.4540596341       -2.4795932692
 H          1.4194943658        0.0978623954       -0.9604672612
 H          2.5690213873       -0.3464321277       -2.1964048200
 H          3.4489331889       -0.9408981071        0.0453186725
 H          3.2432552714       -2.3492962337       -0.9580309259
 H          2.4521637278       -2.9586812278        1.2186279595
 H          1.0473587788       -2.8197287932        0.2077509572
 H          2.0238731267       -0.6930817003        2.1845348719
 H          0.6856230416       -1.7799515543        2.4639616165
 H          0.3557842169        1.3461093457        2.3831047659
 H         -1.3672181782        2.4162314819        1.2624881037
 H         -1.3077411203        2.8861881297       -1.2861550406
 H          0.9246974909        3.4962887123       -1.8981177507
 H          2.8712054366        2.8797214386       -0.5088168466
 H          2.6530886082        1.4608340922        1.4060175410
 H         -3.4533605411        1.3930109149       -0.5341546901
 H         -4.5033521735       -0.8146544916       -0.8831333447
 H         -3.3107068493       -2.8661948819       -0.2689547230
 H         -1.0561584443       -2.7508993094        0.7101830233
  39
        -50.36791134
 N          0.8042844164       -2.4554275755        1.6448686510
 C          2.2891232191       -2.5483639924        1.5973981081
 C          2.8198519027       -2.6564467882        0.1689324046
 C          2.7582523331       -1.3571786409       -0.6567584411
 C          1.3933245150       -1.0141189732       -1.2799491878
 N          0.4612181792       -0.2793113555       -0.4108605753
 C          0.8534169106        0.9535942220        0.3229686896
 C         -0.5129557212        1.4653324919        0.9291823690
 C         -0.8163115132        2.9104128658        0.6642951369
 C         -0.0670939370        3.6813440949       -0.1200125082
 C          1.1210500767        3.1804869987       -0.7632732545
 C          1.5551234041        1.9398399110       -0.5662555588
 C         -0.9336834148       -0.4420943390       -0.4540760589
 C         -1.5515018666        0.5384852346        0.3337977908
 C         -2.9233736009        0.5666399096        0.4582646710
 C         -3.6812566630       -0.3805651473       -0.2069104696
 C         -3.0736143993       -1.3469352866       -0.9909124928
 C         -1.7022575058       -1.3881415989       -1.1216395252
 H          0.3596323944       -3.3308862747        1.3297250941
 H          0.5242238394       -1.7035703122        0.9847704363
 H          0.4449209299       -2.2299450999        2.5859176631
 H          2.6060315689       -3.4120140178        2.1955187024
 H          2.7309788998       -1.6733721472        2.0879028253
 H          2.2783358095       -3.4482987634       -0.3590185072
 H          3.8605653369       -3.0041507344        0.2092010252
 H          3.4947071179       -1.4312629723       -1.4679333895
 H          3.1062842736       -0.5199000514       -0.0448546149
 H          0.9086649513       -1.9320525387       -1.6196572645
 H          1.5218022645       -0.4008926395       -2.1780208119
 H          1.5308887940        0.6621260625        1.1392345345
 H         -0.5014176180        1.3064550258        2.0172684329
 H         -1.6999031981        3.3273377319        1.1215467764
 H         -0.3443038453        4.7106194225       -0.2824423155
 H          1.6662707809        3.8410701493       -1.4183978879
 H          2.4436287506        1.6080846232       -1.0772909240
 H         -3.3920700563        1.3215507383        1.0654851321
 H         -4.7552352459       -0.3633317484       -0.1169421283
 H         -3.6807632963       -2.0735582636       -1.5065304712
 H         -1.2324706611       -2.1359894965       -1.7350988954
  39
        -50.36778311
 N          1.1797456797       -1.8082709403       -1.9360103575
 C          2.4646397477       -2.3236242392       -1.3719559480
 C          3.0601426318       -1.3147575676       -0.3874108890
 C          2.5558549450       -1.4622250888        1.0561192388
 C          1.0350953385       -1.5070059739        1.2415537662
 N          0.2651444448       -0.3875323685        0.6693507785
 C          0.5005642895        1.0083009970        1.1394227474
 C         -0.8463468374        1.7537447507        0.7866817200
 C         -0.7201209608        2.7954717396       -0.2852665595
 C          0.4464104027        3.1808797323       -0.7961583121
 C          1.6928591905        2.6301221282       -0.3291884335
 C          1.7327055976        1.6471759080        0.5645114885
 C         -1.0841996311       -0.5711271684        0.2962668879
 C         -1.7791520590        0.6435619866        0.3645664528
 C         -3.1280596375        0.6967843469        0.0892329790
 C         -3.7917793845       -0.4659768283       -0.2574644594
 C         -3.1127765294       -1.6707605742       -0.3217955568
 C         -1.7643348216       -1.7360893379       -0.0442163026
 H          0.5802787497       -2.5501345085       -2.3308583479
 H          1.3426281541       -1.1005735242       -2.6684497694
 H          0.6833228273       -1.3329171314       -1.1574824250
 H          3.1562137861       -2.5361862553       -2.1970617089
 H          2.3047507592       -3.2836908661       -0.8676682721
 H          2.8353325742       -0.3091330478       -0.7568810571
 H          4.1554391564       -1.3830195735       -0.3972079874
 H          2.9685910126       -0.6583639065        1.6749122326
 H          2.9852644570       -2.3783843369        1.4800485100
 H          0.7806274779       -1.5624158780        2.3046990277
 H          0.6519506817       -2.4328062023        0.8058592457
 H          0.6065828408        0.9566159486        2.2342785797
 H         -1.2456564736        2.2310375771        1.6931075466
 H         -1.6316207561        3.2248497333       -0.6701928976
 H          0.4721985762        3.9318360514       -1.5693767157
 H          2.6116895235        3.0550585321       -0.7005125359
 H          2.6909468532        1.3107844752        0.9222473011
 H         -3.6527555687        1.6343202008        0.1544526157
 H         -4.8475906678       -0.4344661850       -0.4723371470
 H         -3.6472525124       -2.5691516900       -0.5858533380
 H         -1.2461705570       -2.6773220684       -0.0867725633
  39
        -50.36714950
 N          2.2293502631       -0.3738763106       -1.6367490943
 C          2.7803200294       -1.7294910388       -1.3360842864
 C          1.6942712221       -2.6217755073       -0.7309825145
 C          1.5729137916       -2.5252706722        0.7967918735
 C          1.3795490767       -1.1228952286        1.3943643606
 N          0.3608862452       -0.2380965565        0.7985568132
 C          0.4457334286        1.2105517073        1.1411374074
 C         -0.9234155369        1.7917923483        0.6234600945
 C         -0.7964276938        2.6767294783       -0.5806437586
 C          0.3724257686        3.1160518602       -1.0417950462
 C          1.6175681302        2.7641788623       -0.4060270045
 C          1.6672387294        1.8961687938        0.5993725409
 C         -0.9580714850       -0.5968282246        0.4446603086
 C         -1.7471770425        0.5590499077        0.3318051307
 C         -3.0870815753        0.4745141535        0.0228084909
 C         -3.6551891823       -0.7691996034       -0.1793986100
 C         -2.8883974975       -1.9154427785       -0.0661358879
 C         -1.5480217948       -1.8412776586        0.2467821922
 H          2.9559287824        0.3558228138       -1.7094185825
 H          1.5785546126       -0.1500991793       -0.8578180212
 H          1.6756040238       -0.3708438004       -2.5070485067
 H          3.6266870828       -1.6545129861       -0.6433843295
 H          3.1904372001       -2.1614551414       -2.2577613932
 H          1.8708237735       -3.6673213445       -1.0142161710
 H          0.7379114596       -2.3598146219       -1.1953253864
 H          2.4747379099       -2.9668072168        1.2391896502
 H          0.7672425289       -3.1802828156        1.1445199079
 H          2.3301237675       -0.5849826831        1.3411555148
 H          1.1502958754       -1.1985310520        2.4622825694
 H          0.4659534503        1.2693452009        2.2409346923
 H         -1.4052578604        2.3641628600        1.4290793490
 H         -1.7039979162        2.9484169427       -1.0960347145
 H          0.4002151287        3.7559326531       -1.9090422395
 H          2.5226769905        3.2361673976       -0.7530979878
 H          2.6162825723        1.6778560937        1.0608381036
 H         -3.6788646754        1.3707410649       -0.0491026826
 H         -4.7032926954       -0.8463582200       -0.4191131010
 H         -3.3479433046       -2.8788891969       -0.2184285497
 H         -0.9739795494       -2.7426442543        0.3434647232
  39
        -50.36701765
 N          0.5740607788       -1.4222684857       -2.5070851820
 C          1.5287130725       -0.9478741524       -1.4627488301
 C          1.9481317184       -2.0634932110       -0.5060647927
 C          2.4212376191       -1.5553510360        0.8615794600
 C          1.2766362862       -1.1941039300        1.8114153129
 N          0.3116243519       -0.2514917485        1.2413351984
 C          0.4350380232        1.2198191112        1.3999255559
 C         -0.8021185619        1.7709271683        0.5865636404
 C         -0.4344273686        2.5698468659       -0.6284311079
 C          0.8184435645        2.8931017719       -0.9410248950
 C          1.9330888950        2.5025948011       -0.1146837148
 C          1.7713853720        1.7458662852        0.9655211886
 C         -0.8995610100       -0.6206788002        0.6336062379
 C         -1.5904753335        0.5284886465        0.2260470226
 C         -2.8045444364        0.4172432097       -0.4156223304
 C         -3.3296297520       -0.8407217336       -0.6530943265
 C         -2.6523131637       -1.9777764114       -0.2450791089
 C         -1.4408577507       -1.8802558699        0.4045192537
 H          0.3537655394       -0.6864338452       -3.1962672046
 H         -0.3121015677       -1.7162357890       -2.0694152434
 H          0.9568890914       -2.2294297374       -3.0219150492
 H          1.0547650620       -0.1344801425       -0.9041876035
 H          2.4112633537       -0.4979991401       -1.9326300701
 H          2.7283827371       -2.6681146234       -0.9845520007
 H          1.1115039847       -2.7540738312       -0.3615614930
 H          3.0672458881       -0.6848852998        0.7095588486
 H          3.0608580211       -2.3073069055        1.3405317267
 H          1.6608828717       -0.7643764720        2.7415636143
 H          0.7304870562       -2.0944179770        2.1055859604
 H          0.2945566491        1.4361785763        2.4706123440
 H         -1.4167947663        2.4006316857        1.2457461262
 H         -1.2360122913        2.8773929511       -1.2811972955
 H          1.0158675476        3.4734009600       -1.8279220281
 H          2.9165603010        2.8572244988       -0.3783341575
 H          2.6279979665        1.4974579631        1.5703144820
 H         -3.3337936089        1.3036075893       -0.7200322242
 H         -4.2818732679       -0.9356198828       -1.1491515118
 H         -3.0867421200       -2.9486701195       -0.4218119912
 H         -0.9283896938       -2.7618592611        0.7457779295
