  39
        -50.37630897
 N          1.0563154106       -0.6085154335       -1.8008827373
 C          2.1145463131       -1.6565292931       -1.7358565291
 C          2.1014650486       -2.4577222540       -0.4362184689
 C          2.4261764104       -1.6349681934        0.8284935214
 C          1.2074796086       -1.2508312503        1.6714074782
 N          0.3063879796       -0.2956022866        1.0208307133
 C          0.4409556270        1.1628711554        1.2722072294
 C         -0.8580212376        1.7657462582        0.6080080525
 C         -0.5919594898        2.6243221763       -0.5926458338
 C          0.6309884993        2.9717171529       -0.9875400059
 C          1.8097257583        2.5459819363       -0.2750758549
 C          1.7374646614        1.7249561976        0.7672490569
 C         -0.9687532577       -0.6236623335        0.5263821405
 C         -1.6894736522        0.5490233929        0.2603485688
 C         -2.9699882856        0.4798190810       -0.2429302049
 C         -3.5328055028       -0.7604642236       -0.4855365378
 C         -2.8247921413       -1.9210072284       -0.2213399749
 C         -1.5452103752       -1.8657695175        0.2873461449
 H          1.0021565928       -0.1706969459       -2.7342728572
 H          1.2247294948        0.1463659650       -1.1123796798
 H          0.1322849629       -1.0097622401       -1.5859142113
 H          3.0959260708       -1.1885590945       -1.8748893834
 H          1.9898386519       -2.3333167395       -2.5906273001
 H          2.8131918563       -3.2891182476       -0.5274156502
 H          1.1267677648       -2.9408109748       -0.3160867313
 H          2.9739638520       -0.7323731412        0.5405705517
 H          3.1266063187       -2.1962790877        1.4608747962
 H          1.5219533154       -0.8092621067        2.6223020972
 H          0.6343144570       -2.1426222161        1.9379628443
 H          0.3889189317        1.3050943941        2.3630125869
 H         -1.4010586209        2.3654422675        1.3525415014
 H         -1.4444383682        2.9576719430       -1.1630771272
 H          0.7547175020        3.5977093839       -1.8565750143
 H          2.7668748784        2.9299927739       -0.5900351315
 H          2.6393558643        1.4567623296        1.2929427865
 H         -3.5205219196        1.3842985677       -0.4361103024
 H         -4.5356332983       -0.8236870174       -0.8757517543
 H         -3.2847806808       -2.8785793204       -0.4058119616
 H         -1.0049882088       -2.7681448120        0.5109256824
