39
 energy: -50.262877718277 gnorm: 0.000677933517 xtb: 6.5.1 (fef0646)
N           16.32804111819154        3.51121799185397       -2.12143642320019
C           15.04008625395913        3.40804827631683       -1.36018728252571
C           14.60244317081825        1.95703373134456       -1.23013972009144
C           13.27207158621298        1.86942860347641       -0.48082153946394
C           12.77783296224783        0.41735218740667       -0.33936246382906
N           11.50824802986060        0.38813365094526        0.31727661338110
C           11.37171373205088       -0.08677762681895        1.68970206130932
C            9.78488101426101        0.00676065014113        1.91528007620650
C            9.82634845355357        1.31773013158903        2.60815222845535
C           10.38242907270932        1.30493667633882        3.86361824216089
C           11.81537479498146        1.42263047911681        3.73022016824475
C           12.23766946423448        0.71751071484466        2.65756933537849
C           10.30679862577910        0.33033543203086       -0.35842014105696
C            9.25257169235755        0.05616142840278        0.52100245217550
C            7.95880252684434       -0.03868462396276        0.06645027677716
C            7.71312857590128        0.13329358834709       -1.29193556374105
C            8.75290909045811        0.41465435372162       -2.15925925712554
C           10.06184338483081        0.52298557021473       -1.70743790651126
H           16.63434450420219        4.48825153846856       -2.21098399156941
H           16.20836260787461        3.11338751231267       -3.06264643353411
H           17.06229480501488        2.97623425839588       -1.63860296652767
H           14.28084937579440        3.98509170343545       -1.88974550561957
H           15.18679993583127        3.84930796064567       -0.37355149557283
H           15.35617728078351        1.38317779640872       -0.68698333558489
H           14.48019598916150        1.51196507328926       -2.21998044356146
H           12.50728578144332        2.43599949524070       -1.01315639002255
H           13.37268332167777        2.30019890000708        0.51625393342978
H           13.50332535557707       -0.16643129187205        0.23566229594408
H           12.69336136307242       -0.03615286377956       -1.33405220754976
H           11.70882416583937       -1.14060266926922        1.73704957941190
H            9.41014465395069       -0.80788652317138        2.53222416245253
H           10.18759459864492        2.10108716253520        1.94333590318572
H            9.99566333125216        0.68155759472940        4.65791443552237
H           12.50093257951057        1.81583092885744        4.46797703103911
H           13.30141222551533        0.57347387214799        2.50618117311150
H            7.15101266310833       -0.24504565041170        0.75157691187961
H            6.70587374814845        0.05318432523405       -1.66889164281616
H            8.54818522982210        0.55444200739609       -3.21041618749702
H           10.85668293452457        0.74660765409178       -2.40417598266263
