  28
        -39.48422091
 N          4.0332449983       -1.1980351172       -0.7681630346
 C          3.9401058484       -0.3040458149        0.4161712860
 C          2.7274048437        0.6048323830        0.3103963680
 O          1.5352947454       -0.1648561433        0.2369467915
 C          0.3947631642        0.5466713352        0.1097314590
 C          0.3106789861        1.9561108363        0.0141760211
 C         -0.8992594361        2.5914336402       -0.1303289725
 C         -2.0797471747        1.8788849134       -0.1851954275
 C         -2.0773628756        0.4747878708       -0.0876678499
 C         -3.2643062332       -0.2818569544       -0.1330263086
 C         -3.2252284596       -1.6462694370       -0.0260598478
 C         -2.0116446320       -2.3046917774        0.1315713252
 C         -0.8382217673       -1.5914105723        0.1776930486
 C         -0.8424359901       -0.2034759999        0.0658706995
 H          4.7969921020       -1.8776177725       -0.6775573319
 H          4.1832360837       -0.6525443444       -1.6236148931
 H          3.1502147483       -1.7085322255       -0.8768948091
 H          4.8625493808        0.2790402088        0.5204171263
 H          3.8501589568       -0.9147093594        1.3218380703
 H          2.7883402405        1.2135033418       -0.5983589618
 H          2.6482924498        1.2693006661        1.1792346163
 H          1.2073364520        2.5469488177        0.0534074679
 H         -0.9281660338        3.6668514182       -0.2026853321
 H         -3.0174395496        2.3948068528       -0.2997926031
 H         -4.2061499853        0.2260487785       -0.2516820696
 H         -4.1407743430       -2.2145139898       -0.0620814483
 H         -1.9919484793       -3.3788578201        0.2185882035
 H          0.1055383903       -2.0923656026        0.3081554909
