  28
        -39.48422091
 N          4.0332449983       -1.1980351172       -0.7681630346
 C          3.9401058484       -0.3040458149        0.4161712860
 C          2.7274048437        0.6048323830        0.3103963680
 O          1.5352947454       -0.1648561433        0.2369467915
 C          0.3947631642        0.5466713352        0.1097314590
 C          0.3106789861        1.9561108363        0.0141760211
 C         -0.8992594361        2.5914336402       -0.1303289725
 C         -2.0797471747        1.8788849134       -0.1851954275
 C         -2.0773628756        0.4747878708       -0.0876678499
 C         -3.2643062332       -0.2818569544       -0.1330263086
 C         -3.2252284596       -1.6462694370       -0.0260598478
 C         -2.0116446320       -2.3046917774        0.1315713252
 C         -0.8382217673       -1.5914105723        0.1776930486
 C         -0.8424359901       -0.2034759999        0.0658706995
 H          4.7969921020       -1.8776177725       -0.6775573319
 H          4.1832360837       -0.6525443444       -1.6236148931
 H          3.1502147483       -1.7085322255       -0.8768948091
 H          4.8625493808        0.2790402088        0.5204171263
 H          3.8501589568       -0.9147093594        1.3218380703
 H          2.7883402405        1.2135033418       -0.5983589618
 H          2.6482924498        1.2693006661        1.1792346163
 H          1.2073364520        2.5469488177        0.0534074679
 H         -0.9281660338        3.6668514182       -0.2026853321
 H         -3.0174395496        2.3948068528       -0.2997926031
 H         -4.2061499853        0.2260487785       -0.2516820696
 H         -4.1407743430       -2.2145139898       -0.0620814483
 H         -1.9919484793       -3.3788578201        0.2185882035
 H          0.1055383903       -2.0923656026        0.3081554909
  28
        -39.48402917
 N          3.6718185050       -0.8279360333       -1.0878602742
 C          3.4905381412        0.4580479595       -0.3646826990
 C          2.7596519046        0.2345129849        0.9496038411
 O          1.5094470236       -0.4159879384        0.7548709852
 C          0.4781722619        0.3659419859        0.3702904102
 C          0.5307025684        1.7592975564        0.1295746919
 C         -0.5814424142        2.4569757430       -0.2765676694
 C         -1.7950180350        1.8264496242       -0.4605609156
 C         -1.9294327528        0.4448756228       -0.2282365983
 C         -3.1553621730       -0.2281126748       -0.3943770717
 C         -3.2511562215       -1.5717428245       -0.1490830966
 C         -2.1386511653       -2.2912758881        0.2702797863
 C         -0.9298169052       -1.6602589864        0.4391580050
 C         -0.7971800220       -0.2960639955        0.1929114859
 H          2.7592278944       -1.2799828380       -1.2080236272
 H          4.2655029310       -1.4665235034       -0.5477877352
 H          4.0964677503       -0.6923368646       -2.0126814782
 H          2.9165249952        1.1417846370       -0.9981730543
 H          4.4631339963        0.9353705792       -0.1967824180
 H          2.6037628522        1.1528921975        1.5271141496
 H          3.3397460570       -0.4379712072        1.5923413751
 H          1.4537403115        2.2913698558        0.2672418342
 H         -0.5059832371        3.5178061762       -0.4542768661
 H         -2.6545224680        2.3907061131       -0.7790935908
 H         -4.0199545229        0.3275333445       -0.7152331204
 H         -4.1955079381       -2.0756481002       -0.2788453565
 H         -2.2258681463       -3.3477983477        0.4651523340
 H         -0.0647596775       -2.2072182628        0.7741762514
  28
        -39.48388319
 N          3.5853684636       -0.8283186694       -1.1197903759
 C          3.4742757934        0.4534303136       -0.3757315827
 C          2.7697069352        0.2386806805        0.9545471459
 O          1.5131034550       -0.4063619129        0.7869897170
 C          0.4835800338        0.3730493640        0.3933619362
 C          0.5349627762        1.7654775639        0.1475164140
 C         -0.5733722312        2.4567093118       -0.2795720762
 C         -1.7815228635        1.8205891075       -0.4797666487
 C         -1.9154809650        0.4403536921       -0.2392771732
 C         -3.1358576911       -0.2385779028       -0.4213003872
 C         -3.2314351390       -1.5803319332       -0.1656912425
 C         -2.1242891300       -2.2920803420        0.2802919266
 C         -0.9205964149       -1.6555096631        0.4641369183
 C         -0.7882889557       -0.2932094279        0.2073066692
 H          2.6517948565       -1.2397492080       -1.2246050851
 H          4.1626364130       -1.4990313374       -0.6014859501
 H          3.9942042195       -0.6979837511       -2.0524781431
 H          2.9117177854        1.1673126663       -0.9859585377
 H          4.4684840692        0.8909626370       -0.2273605326
 H          2.6307093941        1.1597020013        1.5320993045
 H          3.3580180905       -0.4358297877        1.5876662448
 H          1.4530871265        2.3020289395        0.2999314355
 H         -0.4989117440        3.5168748155       -0.4617026925
 H         -2.6373287588        2.3797651084       -0.8166387867
 H         -3.9964442585        0.3108814457       -0.7628782539
 H         -4.1714089219       -2.0889000248       -0.3082678094
 H         -2.2114464763       -3.3470415019        0.4834727826
 H         -0.0591758486       -2.1965350780        0.8176957967
  28
        -39.47983811
 N          4.7737417919        0.4700992161        0.5232563094
 C          3.3410316849        0.0700197170        0.6506767247
 C          2.7008484878       -0.2756623280       -0.6859096193
 O          1.3731002516       -0.7774446696       -0.5419682238
 C          0.4007357301        0.1320187926       -0.3210006159
 C          0.5655356337        1.5359158654       -0.2675048515
 C         -0.4992166291        2.3714806612       -0.0296453706
 C         -1.7713832185        1.8731267430        0.1651296537
 C         -2.0149696835        0.4875019857        0.1224992370
 C         -3.2995964405       -0.0561654271        0.3161653914
 C         -3.4974250120       -1.4102300724        0.2677661548
 C         -2.4317603815       -2.2691713104        0.0265510640
 C         -1.1676638688       -1.7660782862       -0.1656966991
 C         -0.9331485254       -0.3940962103       -0.1227906893
 H          5.1787031215        0.7001795588        1.4362043157
 H          4.8697789479        1.2908584772       -0.0829548289
 H          5.3267370444       -0.2895980686        0.1136934006
 H          2.7756566490        0.8694441461        1.1395247423
 H          3.2575427516       -0.7956703462        1.3174762617
 H          3.2658455867       -1.0759835723       -1.1781379727
 H          2.6962071739        0.5667563283       -1.3848630288
 H          1.5378522023        1.9652575318       -0.4220925840
 H         -0.3393328944        3.4373123928        0.0039381906
 H         -2.5920562373        2.5443192291        0.3509965987
 H         -4.1272358454        0.6064361340        0.5036224443
 H         -4.4857011676       -1.8144545853        0.4175376540
 H         -2.5983324742       -3.3335257139       -0.0092975003
 H         -0.3340005179       -2.4221969437       -0.3526175821
  28
        -39.47961704
 N          5.1442474027       -0.1003952281       -0.0169537426
 C          3.8039490947       -0.7558127690        0.0296859247
 C          2.6567410743        0.2403091677       -0.0279250533
 O          1.3983453349       -0.4254487123        0.0166608878
 C          0.3137930691        0.3761424864       -0.0244759730
 C          0.3351814058        1.7884212553       -0.1067063536
 C         -0.8288283648        2.5180720048       -0.1427160769
 C         -2.0626642434        1.9011082700       -0.1003411622
 C         -2.1638040313        0.4994959701       -0.0189611993
 C         -3.4059567820       -0.1626710365        0.0258972696
 C         -3.4647524182       -1.5283243918        0.1055766882
 C         -2.2977191299       -2.2819499357        0.1434214391
 C         -1.0721507018       -1.6621727594        0.1011233342
 C         -0.9778960152       -0.2752424450        0.0198796132
 H          5.2524721200        0.4403734359       -0.8804763119
 H          5.8992544634       -0.7925873582        0.0211052922
 H          5.2609893979        0.5409303633        0.7738829399
 H          3.7125549826       -1.3549893640        0.9424335248
 H          3.7052659721       -1.4642662210       -0.8005295847
 H          2.6998346471        0.8228361123       -0.9546303102
 H          2.7056630478        0.9313138624        0.8203735734
 H          1.2763130295        2.3057903665       -0.1423574984
 H         -0.7783508967        3.5933115208       -0.2050615317
 H         -2.9627629273        2.4906450352       -0.1292671670
 H         -4.3117967638        0.4185054695       -0.0030828457
 H         -4.4217608610       -2.0238247871        0.1394223549
 H         -2.3550949158       -3.3564496149        0.2061798312
 H         -0.1617228359       -2.2366875078        0.1300068670
  28
        -39.47889972
 N          3.1362231804        0.3835607809        1.4833670228
 C          3.7214210834       -0.2230775636        0.2590830909
 C          2.8262820772       -0.0358845618       -0.9558539040
 O          1.5281569330       -0.5840483499       -0.7322539435
 C          0.5240788934        0.2626782912       -0.4135972145
 C          0.6068053324        1.6669093289       -0.2607673653
 C         -0.4954381762        2.4156142849        0.0766650407
 C         -1.7272970504        1.8283323651        0.2805911096
 C         -1.8902160041        0.4373075248        0.1446925813
 C         -3.1318671484       -0.1967348684        0.3441841752
 C         -3.2524886596       -1.5530499501        0.2003590606
 C         -2.1496416677       -2.3245484337       -0.1458109155
 C         -0.9262124877       -1.7319552904       -0.3458298336
 C         -0.7692757332       -0.3552764951       -0.2058288679
 H          3.7082764571        0.1887870264        2.3140482173
 H          2.1961522842        0.0028748437        1.6439493982
 H          3.0550693067        1.4030864096        1.3865469653
 H          3.8584648250       -1.2965596269        0.4332957747
 H          4.7199462634        0.1912993786        0.0765962509
 H          3.2280993612       -0.5751765007       -1.8237003781
 H          2.7526956729        1.0102545991       -1.2620945489
 H          1.5436711987        2.1716511577       -0.4024322599
 H         -0.3970624452        3.4839413273        0.1850093030
 H         -2.5775472243        2.4329637052        0.5454465603
 H         -3.9882792448        0.3983529063        0.6118428313
 H         -4.2083918912       -2.0270774187        0.3557008183
 H         -2.2553866200       -3.3913955283       -0.2576516308
 H         -0.0653482050       -2.3200849887       -0.6166112582
  28
        -39.47882649
 N          3.1925342932        0.1739941029       -1.3970959898
 C          3.7345272030       -0.2351400125       -0.0750852896
 C          2.7851312079        0.1088659011        1.0620804315
 O          1.4988219483       -0.4733905626        0.8579042968
 C          0.5099733651        0.3166890366        0.3839104960
 C          0.6034228443        1.6847656708        0.0349132888
 C         -0.4843601539        2.3771254834       -0.4412176836
 C         -1.7113929122        1.7661052346       -0.5992658776
 C         -1.8835493552        0.4078305655       -0.2746242404
 C         -3.1205336900       -0.2489630728       -0.4230000630
 C         -3.2505821066       -1.5718713149       -0.0946299029
 C         -2.1620481092       -2.2861610930        0.3913714993
 C         -0.9435225974       -1.6702657051        0.5457852537
 C         -0.7772585557       -0.3266000587        0.2196604579
 H          2.2676780170       -0.2493021246       -1.5382747897
 H          3.8040266454       -0.1234978267       -2.1671852447
 H          3.0874656101        1.1945219224       -1.4515536518
 H          4.7180874924        0.2217088462        0.0846353598
 H          3.8948227703       -1.3196039779       -0.0850111512
 H          2.6956907346        1.1865735653        1.2197378093
 H          3.1481012771       -0.3039168250        2.0122222995
 H          1.5378247413        2.2044674224        0.1319773694
 H         -0.3781478717        3.4191775956       -0.6973397481
 H         -2.5505723854        2.3266267522       -0.9737343616
 H         -3.9660087584        0.3023408840       -0.7978004593
 H         -4.2028181779       -2.0638224991       -0.2122642205
 H         -2.2754251046       -3.3267132462        0.6488068668
 H         -0.0941544230       -2.2137058831        0.9246439972
  28
        -39.47875169
 N          3.1812336640        0.1849105421       -1.3972916053
 C          3.7343245239       -0.2207638977       -0.0787109664
 C          2.7851684688        0.1041073581        1.0645355007
 O          1.5004122011       -0.4801687725        0.8571812020
 C          0.5116900958        0.3111359213        0.3851570459
 C          0.6075349920        1.6795063773        0.0378124623
 C         -0.4778334032        2.3735919304       -0.4410877157
 C         -1.7052883524        1.7643362662       -0.6022770671
 C         -1.8806440670        0.4067114444       -0.2766029554
 C         -3.1188831891       -0.2474124002       -0.4260212787
 C         -3.2527718030       -1.5693069489       -0.0952288774
 C         -2.1667649487       -2.2853379312        0.3938946963
 C         -0.9468565562       -1.6722419620        0.5488319458
 C         -0.7767810553       -0.3295667348        0.2204932708
 H          3.7939821629       -0.1011380829       -2.1705340522
 H          3.0609228120        1.2036746332       -1.4489422980
 H          2.2620115688       -0.2517345733       -1.5363267243
 H          4.7115569548        0.2501753841        0.0789003322
 H          3.9113821198       -1.3025510436       -0.0943003903
 H          2.6908040200        1.1791440727        1.2373475548
 H          3.1523248549       -0.3192420082        2.0084269300
 H          1.5423184386        2.1978839990        0.1381293457
 H         -0.3693617045        3.4154572118       -0.6970107110
 H         -2.5424651578        2.3260096127       -0.9794718939
 H         -3.9623149214        0.3051555375       -0.8035733538
 H         -4.2060881883       -2.0590590483       -0.2133285034
 H         -2.2833226522       -3.3250437900        0.6533175385
 H         -0.0993421746       -2.2171639511        0.9297255031
  28
        -39.47627671
 N          4.3001085941       -0.6317087606        0.4273279216
 C          3.1917493957       -1.4121866983       -0.1826766084
 C          2.1637948811       -0.4775912081       -0.7967493138
 O          1.7448050609        0.5078243020        0.1570900556
 C          0.4253893195        0.8769590359        0.1475501164
 C          0.1381273765        2.2628164132        0.2122809474
 C         -1.1385866348        2.7421240905        0.0580288228
 C         -2.1977987347        1.8793551090       -0.1322935258
 C         -2.0056058177        0.4840323784       -0.1119108026
 C         -3.0911489139       -0.4074908155       -0.2168183748
 C         -2.9007520348       -1.7564133368       -0.0898844672
 C         -1.6325442827       -2.2620067229        0.1636002856
 C         -0.5529730638       -1.4166763425        0.2535711946
 C         -0.6983759662       -0.0404906455        0.0740670945
 H          4.8112683828       -0.1082160132       -0.2906897626
 H          4.9634992047       -1.2328414862        0.9287287820
 H          3.9054097482        0.0492326282        1.0853620873
 H          2.7170492858       -2.0187886744        0.5957740352
 H          3.5846819977       -2.1140931014       -0.9275946482
 H          1.2979325227       -1.0062437423       -1.2087892820
 H          2.6069853836        0.0841238945       -1.6270455565
 H          0.9667507017        2.9386859793        0.3314587641
 H         -1.3146746300        3.8056642046        0.0754537725
 H         -3.1928868725        2.2689070690       -0.2614181088
 H         -4.0798004549       -0.0136562271       -0.3807216530
 H         -3.7403295783       -2.4287171413       -0.1650334018
 H         -1.4974213922       -3.3229936944        0.2983993026
 H          0.4109786449       -1.8133574478        0.5170934643
