12
 energy: -20.086710688478 gnorm: 0.000414496723 xtb: 6.5.1 (fef0646)
N            1.03361781497926        0.35791945758081        0.27523338987634
C            2.49503048685902        0.16735607801763        0.29962893960018
C            3.12318107002559        0.88153489408065        1.48443799291224
F            2.70582641941744        0.28053647471774        2.66839836945589
Cl          -0.07692765751097       -1.14914903808538       -2.10230718485076
H            0.61720122077375       -0.16921170087150       -0.53980136705927
H            0.78477425766804        1.34386364887244        0.16193558209783
H            0.60840901374338       -0.00529850820214        1.13298680356528
H            2.92466741623964        0.55436808819469       -0.62282106369591
H            2.70480809856461       -0.90077444261851        0.35681157317371
H            2.81608227242131        1.92677253966805        1.55812352341360
H            4.21089958681948        0.80129250864557        1.46699344151078
