16
 energy: -25.513097758003 gnorm: 0.000535198971 xtb: 6.5.1 (fef0646)
N            1.28888261321373       -0.38166781075395       -0.32739115976469
C            2.73951876403139       -0.08048548284040       -0.24453962006750
C            3.05004160376633        1.18715237263441       -0.96238404535418
C            3.06217849626976        2.45682116277499       -0.47595644460983
C            3.35270632858339        3.42293630965139       -1.46526934936772
C            3.55232194318443        2.87615768547625       -2.69153963816662
S            3.39154781986178        1.17243814352453       -2.66602898048138
Cl          -0.26514596843281        1.83557396519426        1.08318279198083
H            1.06619934985611       -1.25581307994902        0.15549742752751
H            0.98610669867644       -0.43832972949433       -1.30379699159566
H            0.73684619304935        0.38662632043529        0.13560420461749
H            3.30112150729903       -0.90299311288439       -0.68909011776381
H            3.00724857053991        0.03131793567580        0.80617247606248
H            2.85139538043117        2.69786624456728        0.55005936728982
H            3.40729050871580        4.47938267985228       -1.27130526424227
H            3.78524019095425        3.37029639613521       -3.61372465606436
