  26
        -37.97355231
 N         -2.3084621318       -0.9603239849        1.4809320152
 C         -2.2210662302       -2.0351887392        0.4514456666
 C         -1.5248430821       -1.5579968760       -0.8210631942
 C         -0.1493235228       -1.0175144948       -0.5665362626
 C          0.0497630585        0.3401807218       -0.3632538247
 C          1.3037626804        0.8427674247       -0.0987167292
 C          2.4122554741       -0.0034301021       -0.0204898614
 O          3.7189701790        0.4191189471        0.2441071696
 C          3.8634121895        1.8084386218        0.4455986600
 C          2.2001198273       -1.3704508965       -0.2174396568
 C          0.9444443329       -1.8667169658       -0.4817228583
 Cl        -3.1177456435        2.0085827151       -0.2364776635
 H         -2.8903623360       -1.2325726852        2.2852748359
 H         -2.7057306525       -0.0997488567        1.0680503939
 H         -1.3730400946       -0.7174526577        1.8344313811
 H         -3.2274016882       -2.4022158037        0.2159326336
 H         -1.6830831622       -2.8939814162        0.8695356457
 H         -2.1287854338       -0.7789606154       -1.2986699081
 H         -1.4637771263       -2.3696393200       -1.5548699228
 H         -0.7992751840        1.0021376411       -0.4043431621
 H          1.4266778177        1.8999621769        0.0526924983
 H          4.9130274325        2.0253896441        0.6466703142
 H          3.2688725966        2.1266275718        1.3035220369
 H          3.5584221425        2.3510725860       -0.4506306412
 H          3.0471825587       -2.0309074389       -0.1541849437
 H          0.7995301558       -2.9245268074       -0.6235167455
