36
 energy: -55.150865461541 gnorm: 0.000336370599 xtb: 6.5.1 (fef0646)
N            2.79753619565822        0.40888540264424        2.79706362979532
C            2.33795435595761       -0.83536425541827        2.14862812564368
C            2.89895717359176       -0.90981507409602        0.72907150953071
C            4.39764150364216       -1.01792261091367        0.73672217353639
C            5.02628784732924       -2.25530457185207        0.82894768930530
C            6.40239303856618       -2.35261179019771        0.85568669437199
C            7.20277990166679       -1.20813050149543        0.79411997570798
C            8.65274523879642       -1.24553981229999        0.80587890426078
C            9.41966566256496       -2.33913753765977        0.68668910152562
C           10.86986769759370       -2.37040367151273        0.68110848390103
C           11.65609696071311       -1.25724924037566        0.99198338870498
C           13.02718659325017       -1.37454133377168        0.95873565442564
F           13.78056351313939       -0.27283347805867        1.26866055952661
C           13.67816763108883       -2.54826313551864        0.63072061989322
C           12.89824260597587       -3.65270628481665        0.32628726421359
C           11.52026986905306       -3.56561612633294        0.35425335365964
C            6.56333903088204        0.03327652321143        0.71645853570966
C            5.18626029324548        0.12747201241084        0.68702861907960
Cl           2.27913347856745        2.87024371438628        1.05062340773018
H            2.39031387834720        0.53000961241441        3.72643091161446
H            2.53932636122911        1.24331047559182        2.20957266940439
H            3.81961594327031        0.41670976544942        2.85948657848853
H            1.24996909033743       -0.82627249353874        2.10472648954912
H            2.67463018278481       -1.69317160797628        2.73244921736528
H            2.60027842332650       -0.00619920987776        0.19583243394946
H            2.46831214929439       -1.77242476482114        0.22243534319399
H            4.42846772472203       -3.15356140933083        0.87232200960172
H            6.86112349471242       -3.32561327582880        0.93144850997112
H            9.12133717280224       -0.27409677986159        0.89340734290365
H            8.95417303621988       -3.30564201342112        0.55453202370653
H           11.21914193940747       -0.31130176820311        1.26578846044845
H           14.75480961806232       -2.58586745565929        0.61953191891523
H           13.37602943774834       -4.58440828952610        0.06785230986349
H           10.92844686206396       -4.43559216440825        0.11357168939037
H            7.15941304847116        0.93388543095425        0.66818305826934
H            4.71380304592429        1.09704771970942        0.60682134283600
