  35
        -50.11883394
 N         -5.7605839973        0.9341593317       -1.4918547441
 C         -5.9666512376       -0.3174573528       -0.7097107204
 C         -5.2917785406       -0.2701929984        0.6595585511
 C         -3.7990136774       -0.1478294027        0.5737158662
 C         -3.0100463211       -1.2653072400        0.3225442105
 C         -1.6420515305       -1.1610484792        0.2216614059
 C         -1.0009062269        0.0792351980        0.3635542861
 C          0.4240557876        0.2388303947        0.2650936561
 C          1.3250337184       -0.7603898620        0.0656846141
 C          2.7476954752       -0.5884029847       -0.0451979715
 C          3.3612680533        0.6703565106        0.0058604791
 C          4.7305847242        0.8054122848       -0.1094756789
 F          5.2898440802        2.0211274119       -0.0632521475
 C          5.5219941729       -0.3238056463       -0.2771595102
 C          4.9412345041       -1.5752104756       -0.3300052518
 C          3.5755542459       -1.7116030066       -0.2172348366
 C         -1.8067322274        1.2016192894        0.6088881723
 C         -3.1735548682        1.0868740753        0.7102266526
 H         -6.1498153256        1.7495435775       -0.9950903626
 H         -6.2155286377        0.8885217991       -2.4168379300
 H         -4.7570497039        1.1138321871       -1.6464029055
 H         -5.5785788981       -1.1680709260       -1.2823973899
 H         -7.0433657737       -0.4986371977       -0.5988565330
 H         -5.5425656642       -1.1646538508        1.2417449623
 H         -5.6898527455        0.5725705680        1.2345340015
 H         -3.4853817150       -2.2259253137        0.2107101374
 H         -1.0598988357       -2.0454121904        0.0286504664
 H          0.7932211091        1.2436878292        0.3661277133
 H          0.9614031104       -1.7692522718       -0.0132095956
 H          2.7818146295        1.5663691849        0.1305728350
 H          6.5886506214       -0.1977063996       -0.3646595525
 H          5.5617749873       -2.4485222160       -0.4603044971
 H          3.1291616883       -2.6915013189       -0.2589955078
 H         -1.3399600532        2.1661285820        0.7239089495
 H         -3.7728977976        1.9611044793        0.9041725415
  35
        -50.11861843
 N         -5.6380928812        1.6234299507        1.0225768444
 C         -6.0069379640        0.7268500150       -0.1089842948
 C         -5.3068687594       -0.6283950802       -0.0327612243
 C         -3.8122811542       -0.5220663043       -0.1101519183
 C         -3.1845988494       -0.2598247005       -1.3227851642
 C         -1.8167231026       -0.1431145722       -1.4004396474
 C         -1.0110460631       -0.2845344065       -0.2601673390
 C          0.4157169925       -0.1605573787       -0.3816092251
 C          1.3164527904       -0.3161543047        0.6255757438
 C          2.7415429770       -0.1810263460        0.4963955505
 C          3.3589707513        0.1765465130       -0.7096249909
 C          4.7308370309        0.3029113383       -0.8024726048
 F          5.2940528952        0.6514659854       -1.9661611326
 C          5.5208770544        0.0704986858        0.3161947612
 C          4.9362806210       -0.2834632688        1.5157918761
 C          3.5681314657       -0.4079939569        1.6107357426
 C         -1.6539345314       -0.5433313724        0.9601369810
 C         -3.0236408922       -0.6559805985        1.0281172719
 H         -4.6214498833        1.7928409153        1.0441707167
 H         -5.9030709470        1.2059208397        1.9273020625
 H         -6.1065489083        2.5406535609        0.9546557394
 H         -5.7546468696        1.2197487351       -1.0552934833
 H         -7.0962662100        0.5942683914       -0.1232794028
 H         -5.6580845085       -1.2873742842       -0.8354567516
 H         -5.5850178691       -1.1307897437        0.8996976504
 H         -3.7847187419       -0.1535056990       -2.2114586730
 H         -1.3489662498        0.0550161849       -2.3509746374
 H          0.7865554570        0.0675265052       -1.3648272995
 H          0.9506514128       -0.5683820556        1.6047691818
 H          2.7807044509        0.3680224799       -1.5945702799
 H          6.5895671907        0.1733457056        0.2232747253
 H          5.5557734151       -0.4632834647        2.3810121315
 H          3.1187978157       -0.6860767373        2.5498709619
 H         -1.0717371201       -0.6544608569        1.8583499911
 H         -3.4987295860       -0.8568545644        1.9742008535
  35
        -50.11851318
 N         -5.6549047189        0.9268010038       -1.6373096476
 C         -6.0704916514       -0.0472802200       -0.5889794194
 C         -5.3232768916        0.1553068181        0.7274560549
 C         -3.8449086338       -0.0689696212        0.6045899996
 C         -2.9661375211        1.0016035868        0.4768090724
 C         -1.6116923902        0.7970200772        0.3506535111
 C         -1.0746507109       -0.4997664754        0.3440176634
 C          0.3340552463       -0.7612719108        0.2282307007
 C          1.3067729373        0.1812406833        0.1057276087
 C          2.7172033763       -0.0752086131        0.0020101159
 C          3.6017279259        1.0031975546       -0.1326570985
 C          4.9647029030        0.8075732168       -0.2335259019
 F          5.7872370063        1.8560734335       -0.3642432835
 C          5.4761931809       -0.4833363815       -0.1998156993
 C          4.6255786670       -1.5627458531       -0.0669039753
 C          3.2652996406       -1.3696333524        0.0326367756
 C         -1.9709075744       -1.5728330413        0.4644214620
 C         -3.3237457360       -1.3581389772        0.5893212799
 H         -5.8398430634        1.8957510741       -1.3370669560
 H         -6.1600648832        0.7752033831       -2.5241202779
 H         -4.6459762827        0.8496025082       -1.8356196702
 H         -5.9004203793       -1.0663084488       -0.9561260858
 H         -7.1532506791        0.0357982207       -0.4303370377
 H         -5.7208675558       -0.5126582120        1.5005602012
 H         -5.5043800079        1.1697290717        1.0981415224
 H         -3.3583677026        2.0051663608        0.4853883047
 H         -0.9583499461        1.6475894033        0.2618553787
 H          0.6263397382       -1.7958639676        0.2448522194
 H          1.0140380790        1.2157408568        0.0841278870
 H          3.2285149687        2.0118727025       -0.1597063073
 H          6.5425475216       -0.6175081122       -0.2788213454
 H          5.0315192947       -2.5623464505       -0.0405388536
 H          2.6188955620       -2.2235968592        0.1372768345
 H         -1.5860623416       -2.5793952151        0.4623653237
 H         -3.9948892319       -2.1959470287        0.6840332999
  35
        -50.11850378
 N         -5.8712008455       -0.2067906922       -1.6676308526
 C         -5.9628609436        0.7395533769       -0.5201696676
 C         -5.3106935838        0.1887943643        0.7462918347
 C         -3.8360930701       -0.0417891953        0.5940287881
 C         -3.3334072259       -1.3112641035        0.3295245014
 C         -1.9832555369       -1.5176745814        0.1697186393
 C         -1.0706014617       -0.4559572510        0.2657281909
 C          0.3338019658       -0.7101928610        0.0948901124
 C          1.3237497883        0.2179607677        0.1844638340
 C          2.7276498611       -0.0320797271        0.0042665202
 C          3.6362801262        1.0254120824        0.1443857074
 C          4.9933763271        0.8348973619       -0.0236244731
 F          5.8395134877        1.8636099908        0.1135633365
 C          5.4743767652       -0.4296393261       -0.3379669089
 C          4.5995607045       -1.4881459191       -0.4812123176
 C          3.2452832096       -1.3000523073       -0.3139753900
 C         -1.5883138940        0.8221572585        0.5268387391
 C         -2.9410026883        1.0188732166        0.6838749377
 H         -6.3082750972        0.1784887868       -2.5192476778
 H         -6.3445183428       -1.0970519090       -1.4520045051
 H         -4.8882929474       -0.4232324453       -1.8919396105
 H         -7.0179167994        0.9776201250       -0.3341224293
 H         -5.4875376826        1.6880909826       -0.7967165646
 H         -5.7954971568       -0.7520444260        1.0276734681
 H         -5.4791616370        0.8674903675        1.5905729275
 H         -4.0159115326       -2.1418102381        0.2563588757
 H         -1.6126215443       -2.5100809518       -0.0281298233
 H          0.6076716654       -1.7279000509       -0.1180728982
 H          1.0516917985        1.2331579336        0.4120055709
 H          3.2869765120        2.0132763298        0.3884419413
 H          6.5364242726       -0.5601506403       -0.4658913360
 H          4.9815761034       -2.4672838910       -0.7262865544
 H          2.5795422389       -2.1372525951       -0.4318095319
 H         -0.9225879587        1.6639961177        0.6056845126
 H         -3.3204403898        2.0073066808        0.8849015336
  35
        -50.11496005
 N         -7.3394087991       -0.1351821854        0.7974346627
 C         -5.8511727243       -0.0804826575        0.8839382326
 C         -5.1863355855        0.0150807499       -0.4850958286
 C         -3.6888811620        0.0858619216       -0.4093893954
 C         -2.9173879413       -1.0710080273       -0.4447301128
 C         -1.5460285945       -1.0127860384       -0.3531914294
 C         -0.8837120068        0.2168876586       -0.2152149315
 C          0.5459108253        0.3287554163       -0.1196058884
 C          1.4298813663       -0.7037202178       -0.1687868373
 C          2.8586756179       -0.5821439175       -0.0718871500
 C          3.5007508606        0.6508036369        0.1043714735
 C          4.8759999862        0.7361535883        0.1940748236
 F          5.4636197933        1.9276441633        0.3609735863
 C          5.6443878920       -0.4179492744        0.1088989619
 C          5.0352285249       -1.6446423810       -0.0646358820
 C          3.6638500911       -1.7316861526       -0.1539773336
 C         -1.6721596929        1.3769123507       -0.1702274700
 C         -3.0426109098        1.3086047693       -0.2634142226
 H         -7.7769481329       -0.2004959987        1.7293966426
 H         -7.6497104027       -0.9518117040        0.2502816177
 H         -7.7158090750        0.7064216097        0.3355548611
 H         -5.4814044916       -0.9667433580        1.4129949981
 H         -5.5517626997        0.7756736540        1.4998555857
 H         -5.5649259381        0.8935029868       -1.0184805614
 H         -5.4803924017       -0.8426502375       -1.0991633657
 H         -3.4088636886       -2.0243926627       -0.5481980105
 H         -0.9774080709       -1.9259047051       -0.3867224015
 H          0.9334543354        1.3250504300       -0.0038189491
 H          1.0462029410       -1.7003573887       -0.2940523283
 H          2.9397513406        1.5641756783        0.1763723626
 H          6.7160456269       -0.3305716206        0.1807180380
 H          5.6380307846       -2.5373926451       -0.1303982985
 H          3.1951547018       -2.6924482453       -0.2897874166
 H         -1.1894331850        2.3344914405       -0.0630683251
 H         -3.6300389746        2.2112970834       -0.2264871158
  35
        -50.11479007
 N         -7.3366855170        0.5585931148       -0.7963335845
 C         -5.8649791289        0.3312360357       -0.8851749340
 C         -5.2168185209        0.1390735599        0.4817208996
 C         -3.7346907569       -0.0861565947        0.4052499347
 C         -3.2143467094       -1.3708790914        0.2920066183
 C         -1.8580207558       -1.5786236422        0.2004290966
 C         -0.9569677179       -0.5027568042        0.2120998088
 C          0.4544436337       -0.7580325213        0.1177008561
 C          1.4313773741        0.1880118607        0.1119411078
 C          2.8434703523       -0.0629979487        0.0184834272
 C          3.7333282523        1.0194105057        0.0147141237
 C          5.0978205466        0.8287558962       -0.0743906862
 F          5.9257234924        1.8811842213       -0.0777920969
 C          5.6053755158       -0.4612074092       -0.1613211651
 C          4.7494464256       -1.5445677758       -0.1586397846
 C          3.3877473822       -1.3563271920       -0.0705156857
 C         -1.4927024600        0.7903013345        0.3168198527
 C         -2.8512276948        0.9880978123        0.4084067191
 H         -7.7630515837        0.6868269252       -1.7269294205
 H         -7.5497213714        1.3987862968       -0.2383861282
 H         -7.8093073220       -0.2390211257       -0.3450141147
 H         -5.3943119753        1.1763668684       -1.4012022704
 H         -5.6666278912       -0.5446017377       -1.5141830721
 H         -5.6872774930       -0.7044386873        0.9979987632
 H         -5.4199544443        1.0110407810        1.1123711387
 H         -3.8891682197       -2.2108731347        0.2791996881
 H         -1.4740291118       -2.5822586925        0.1186630210
 H          0.7448463595       -1.7907706134        0.0455676037
 H          1.1408332006        1.2210166738        0.1815462522
 H          3.3631086249        2.0273163130        0.0815184504
 H          6.6728905191       -0.5915665170       -0.2298368477
 H          5.1522742783       -2.5434977823       -0.2258986965
 H          2.7371703032       -2.2135011019       -0.0689368187
 H         -0.8362068522        1.6429169212        0.3274381756
 H         -3.2444026640        1.9883852969        0.4868699621
  35
        -50.11288788
 N         -6.5694250314        1.2908569147       -0.7702337551
 C         -6.0497794268        0.6535626001        0.4757560955
 C         -5.2318197405       -0.6189677501        0.2033288604
 C         -3.7426614783       -0.4146241218        0.1347510967
 C         -3.1802812646        0.7034844100       -0.4709744936
 C         -1.8168451305        0.8637210850       -0.5461194868
 C         -0.9438284861       -0.0999772561       -0.0193753472
 C          0.4761566225        0.1013811067       -0.1130939052
 C          1.4311594658       -0.7492099474        0.3498959478
 C          2.8500713753       -0.5405625839        0.2566049734
 C          3.4078963162        0.5998380472       -0.3364759332
 C          4.7758779109        0.7730489277       -0.4095394933
 F          5.2821548132        1.8734179616       -0.9802542654
 C          5.6216027022       -0.1976836180        0.1121145866
 C          5.0961752705       -1.3303782003        0.7011610274
 C          3.7322100114       -1.5045711553        0.7752400482
 C         -1.5165217219       -1.2311147745        0.5814506731
 C         -2.8825992269       -1.3801457535        0.6509512189
 H         -7.2208445320        0.6597719831       -1.2604733996
 H         -5.8164976008        1.5213844315       -1.4340194855
 H         -7.0827237595        2.1630988053       -0.5682248743
 H         -6.9060032998        0.4257292281        1.1246180913
 H         -5.4434012323        1.3711989589        1.0412161365
 H         -5.5709120863       -1.0751186662       -0.7327551112
 H         -5.4402744651       -1.3654175360        0.9790705525
 H         -3.8245732415        1.4598339294       -0.8818901469
 H         -1.4049109673        1.7415292836       -1.0166167474
 H          0.7929186523        1.0094105570       -0.5941748956
 H          1.1167820621       -1.6590009813        0.8291655063
 H          2.7856281689        1.3716941299       -0.7502132922
 H          6.6861631269       -0.0442185409        0.0454941212
 H          5.7585652672       -2.0808569516        1.1045670945
 H          3.3289666782       -2.3910496719        1.2365383823
 H         -0.8827892344       -1.9966709445        0.9942191124
 H         -3.3005183344       -2.2603480253        1.1115600270
  35
        -50.11258035
 N         -6.1648834417        1.9578375520       -0.2231077423
 C         -5.9390735752        0.5826250844       -0.7584353820
 C         -5.3257787614       -0.3720024157        0.2777509288
 C         -3.8254996845       -0.4824621733        0.2367595527
 C         -3.2111708062       -1.6945528023        0.5387632148
 C         -1.8417032371       -1.8191924034        0.5352480229
 C         -1.0148364270       -0.7267181511        0.2338929757
 C          0.4128189883       -0.8934675091        0.2428120698
 C          1.3260379668        0.0792344961       -0.0203138257
 C          2.7539720728       -0.0844227582       -0.0074551410
 C          3.5729448457        1.0159640164       -0.2935725163
 C          4.9494097386        0.9084557470       -0.2910594766
 F          5.7083579676        1.9768584683       -0.5658541842
 C          5.5409652914       -0.3141346567       -0.0003220886
 C          4.7559578772       -1.4136800510        0.2843198487
 C          3.3824991824       -1.3082535215        0.2827233672
 C         -1.6398991978        0.4944520948       -0.0607485592
 C         -3.0110249553        0.6067220629       -0.0541773439
 H         -5.3014140182        2.3792699273        0.1478305116
 H         -6.8480675135        1.9427570955        0.5488507514
 H         -6.5355529580        2.5938930478       -0.9464113327
 H         -5.3010961751        0.6241406585       -1.6492626063
 H         -6.9028616468        0.1929895175       -1.1125085782
 H         -5.7458563140       -1.3765905429        0.1476291338
 H         -5.6308376021       -0.0606481335        1.2823513395
 H         -3.8243470294       -2.5469429774        0.7813925888
 H         -1.3895235578       -2.7689270438        0.7699418686
 H          0.7722879011       -1.8779588759        0.4829696144
 H          0.9670068558        1.0644746676       -0.2586727984
 H          3.1372430526        1.9728857970       -0.5212694423
 H          6.6166126383       -0.3800049385       -0.0027874417
 H          5.2236587668       -2.3599531124        0.5090889439
 H          2.7881485380       -2.1769437329        0.5066005834
 H         -1.0425380811        1.3586561620       -0.2940368144
 H         -3.4634350815        1.5546698101       -0.2840651466
  35
        -50.11191902
 N         -7.3170524533        1.1277041200       -0.1910334716
 C         -5.8248692128        1.1226711357       -0.1731262853
 C         -5.2495943351       -0.2762905327        0.0318765668
 C         -3.7473859277       -0.3763333771        0.0622205233
 C         -3.1597138623       -1.6223139810        0.2584751642
 C         -1.7930846818       -1.7702366691        0.2897711559
 C         -0.9413705924       -0.6682443316        0.1236573063
 C          0.4827655046       -0.8603314348        0.1560466756
 C          1.4177716215        0.1138579871       -0.0056375891
 C          2.8421143207       -0.0773361470        0.0191538539
 C          3.6854971857        1.0247681269       -0.1743821644
 C          5.0595308146        0.8900932738       -0.1627020049
 F          5.8422592866        1.9601220159       -0.3506522340
 C          5.6238704949       -0.3618626502        0.0455748996
 C          4.8144693179       -1.4633760725        0.2397785059
 C          3.4434100199       -1.3310720735        0.2279452611
 C         -1.5391432033        0.5858866937       -0.0720449683
 C         -2.9083155446        0.7228444155       -0.1013305661
 H         -7.6814594527        0.5342871750       -0.9511734995
 H         -7.6971451160        2.0768591622       -0.3284414035
 H         -7.7005599216        0.7647243582        0.6946657090
 H         -5.4709780936        1.7905800794        0.6208404732
 H         -5.4518517910        1.5446431609       -1.1135710612
 H         -5.6265891627       -0.9350838315       -0.7577760824
 H         -5.6454815805       -0.6899381475        0.9655403265
 H         -3.7945352543       -2.4838355413        0.3864677103
 H         -1.3628816947       -2.7465124322        0.4423748999
 H          0.8201806207       -1.8681836946        0.3186914399
 H          1.0806774459        1.1213758230       -0.1719433349
 H          3.2709859193        2.0039536277       -0.3380650653
 H          6.6979870925       -0.4488242411        0.0509659212
 H          5.2611192210       -2.4325024312        0.4010158204
 H          2.8297645078       -2.2016901850        0.3809788182
 H         -0.9215056511        1.4576242179       -0.2015643178
 H         -3.3348912337        1.6994782211       -0.2543036310
  35
        -50.11189056
 N         -7.5700580552       -0.0469272830       -0.0484958451
 C         -6.1484494284       -0.4989644545       -0.0885201382
 C         -5.1648451977        0.6561049427        0.0800009735
 C         -3.7041779339        0.2931427013        0.0331302641
 C         -2.7550098530        1.3063788102        0.1292420007
 C         -1.4075886864        1.0319965268        0.0974384328
 C         -0.9430684062       -0.2852548463       -0.0335507093
 C          0.4539238307       -0.6216674154       -0.0716264987
 C          1.4836750242        0.2603533814        0.0337622781
 C          2.8815257512       -0.0716209943       -0.0068801605
 C          3.8327185501        0.9465973626        0.1414162138
 C          5.1863511726        0.6768095333        0.1092775487
 F          6.0740530949        1.6686571653        0.2551397009
 C          5.6206770263       -0.6295744955       -0.0748552138
 C          4.7033599135       -1.6505237285       -0.2246743131
 C          3.3524209604       -1.3834285804       -0.1921131157
 C         -1.9046234269       -1.3020780001       -0.1298997156
 C         -3.2500915606       -1.0166975461       -0.0958452186
 H         -7.7648659587        0.6336198056       -0.7979161313
 H         -7.7891553621        0.4109333590        0.8487677972
 H         -8.2275185237       -0.8337529116       -0.1647100276
 H         -5.9595264884       -1.0126834027       -1.0383331389
 H         -5.9852949994       -1.2451095807        0.6977900767
 H         -5.3684440649        1.1621202807        1.0298191902
 H         -5.3622649833        1.4055838613       -0.6938723423
 H         -3.0908796938        2.3254415741        0.2311317528
 H         -0.7043396212        1.8432006886        0.1726689548
 H          0.6865607373       -1.6647803588       -0.1894878711
 H          1.2510132646        1.3021445649        0.1639074298
 H          3.5197269496        1.9657102554        0.2858597027
 H          6.6807339142       -0.8219615713       -0.0976684783
 H          5.0495403907       -2.6624847746       -0.3688594550
 H          2.6531449000       -2.1921921558       -0.3141234679
 H         -1.5762204471       -2.3235764048       -0.2302171591
 H         -3.9601569949       -1.8225491619       -0.1701176908
