  35
        -50.11883394
 N         -5.7605839973        0.9341593317       -1.4918547441
 C         -5.9666512376       -0.3174573528       -0.7097107204
 C         -5.2917785406       -0.2701929984        0.6595585511
 C         -3.7990136774       -0.1478294027        0.5737158662
 C         -3.0100463211       -1.2653072400        0.3225442105
 C         -1.6420515305       -1.1610484792        0.2216614059
 C         -1.0009062269        0.0792351980        0.3635542861
 C          0.4240557876        0.2388303947        0.2650936561
 C          1.3250337184       -0.7603898620        0.0656846141
 C          2.7476954752       -0.5884029847       -0.0451979715
 C          3.3612680533        0.6703565106        0.0058604791
 C          4.7305847242        0.8054122848       -0.1094756789
 F          5.2898440802        2.0211274119       -0.0632521475
 C          5.5219941729       -0.3238056463       -0.2771595102
 C          4.9412345041       -1.5752104756       -0.3300052518
 C          3.5755542459       -1.7116030066       -0.2172348366
 C         -1.8067322274        1.2016192894        0.6088881723
 C         -3.1735548682        1.0868740753        0.7102266526
 H         -6.1498153256        1.7495435775       -0.9950903626
 H         -6.2155286377        0.8885217991       -2.4168379300
 H         -4.7570497039        1.1138321871       -1.6464029055
 H         -5.5785788981       -1.1680709260       -1.2823973899
 H         -7.0433657737       -0.4986371977       -0.5988565330
 H         -5.5425656642       -1.1646538508        1.2417449623
 H         -5.6898527455        0.5725705680        1.2345340015
 H         -3.4853817150       -2.2259253137        0.2107101374
 H         -1.0598988357       -2.0454121904        0.0286504664
 H          0.7932211091        1.2436878292        0.3661277133
 H          0.9614031104       -1.7692522718       -0.0132095956
 H          2.7818146295        1.5663691849        0.1305728350
 H          6.5886506214       -0.1977063996       -0.3646595525
 H          5.5617749873       -2.4485222160       -0.4603044971
 H          3.1291616883       -2.6915013189       -0.2589955078
 H         -1.3399600532        2.1661285820        0.7239089495
 H         -3.7728977976        1.9611044793        0.9041725415
