  37
        -58.30277048
 N          4.6288559803        1.7527190357        0.1387142954
 C          4.4113726002        1.1312058565        1.4695201445
 C          3.2776169128        0.1171000657        1.4071337904
 O          2.0568835154        0.7306988100        1.0114248965
 C          0.9871328169       -0.1363810046        0.8559745069
 C         -0.2572975428        0.4244751500        0.4618909008
 C         -0.4000687869        1.8216254790        0.2492266391
 C         -1.5825619060        2.3630964684       -0.1301820979
 C         -1.3809561625       -0.4131675978        0.2760190522
 C         -1.2752016970       -1.8085569890        0.4850711198
 C         -0.0384025770       -2.3342205063        0.8802567255
 C          1.0531599210       -1.5247177848        1.0596477734
 C         -2.4257449516       -2.6266677000        0.2884869019
 C         -3.6105369795       -2.0929885099       -0.0927350088
 C         -3.7527520280       -0.6885885512       -0.3117551136
 C         -4.9621594422       -0.1108462836       -0.7045194116
 C         -5.0617400530        1.2509919519       -0.9057585591
 C         -3.9690856642        2.0734631327       -0.7231961113
 C         -2.7359161000        1.5464561682       -0.3309585418
 C         -2.6262291002        0.1497055526       -0.1232810071
 Cl         5.2568136804       -0.8848096653       -2.0826565228
 H          5.3787044914        2.4583918218        0.1487932288
 H          3.7613901633        2.2017450075       -0.1817189944
 H          4.8703816051        1.0286093329       -0.5595110856
 H          4.1645134699        1.9075520646        2.2024463284
 H          5.3363570361        0.6591596146        1.8216058932
 H          3.1208455872       -0.3638344654        2.3797273743
 H          3.5174420057       -0.6621591532        0.6755987927
 H          0.4619477669        2.4474461813        0.4028869374
 H         -1.6685312489        3.4249342358       -0.2854740491
 H          0.0448590741       -3.3953477830        1.0431565954
 H          1.9822796660       -1.9693950515        1.3663218040
 H         -2.3364790818       -3.6874971959        0.4497139221
 H         -4.4692895149       -2.7261601889       -0.2367479629
 H         -5.8212443455       -0.7435336728       -0.8494094310
 H         -6.0044490351        1.6770319799       -1.2088132721
 H         -4.0575714014        3.1346875912       -0.8822570084
