  25
        -37.16827739
 N         -2.7150348149       -1.8497840892       -0.6429288993
 C         -1.6941907325       -2.0176205933        0.4327629754
 C         -0.5538461410       -1.0547523459        0.3025751823
 C         -0.7959450495        0.3315238413        0.3168899953
 C          0.2242765424        1.2272833760        0.2054198553
 C          0.7322349695       -1.5042171227        0.1679127124
 C          1.8167137822       -0.6056639348        0.0478403786
 C          1.5591880617        0.7854370092        0.0691613592
 C          2.6439775337        1.6844763044       -0.0499753949
 C          3.9181433466        1.2203776179       -0.1841227674
 C          4.1734921993       -0.1578540293       -0.2062411709
 C          3.1510847388       -1.0515822010       -0.0932415144
 Cl        -4.1393174618        1.3422374822       -0.0633410391
 H         -3.4632151806       -2.5541408582       -0.5808419811
 H         -2.2786411844       -1.9251972425       -1.5739089431
 H         -3.1545392408       -0.9190552333       -0.5807378169
 H         -1.3108291366       -3.0441078771        0.4199473549
 H         -2.1622198985       -1.8900011256        1.4154100371
 H         -1.8113562159        0.6799067397        0.4028761868
 H          0.0236694985        2.2852030980        0.2161452424
 H          0.9282385953       -2.5618914980        0.1525195446
 H          2.4481035796        2.7432896817       -0.0333824206
 H          4.7376904360        1.9149705027       -0.2744382112
 H          5.1869221953       -0.5096316904       -0.3139235593
 H          3.3479144995       -2.1103070955       -0.1107985346
