25
 energy: -37.174000698508 gnorm: 0.000196011301 xtb: 6.5.1 (fef0646)
N            1.18629016352514        0.01017276788450        0.02565657520416
C            2.57086198210897       -0.50206780752347        0.14096329180527
C            3.13026219569251       -0.28402581261506        1.52229228264211
C            3.68572005197810       -1.36447843058973        2.23450651520106
C            4.20399842446520       -1.18490463564568        3.48592889131695
C            3.10987857206697        0.96354083770261        2.09239407108707
C            3.63117146169336        1.17885146758457        3.38338571044402
C            4.19052551327525        0.08618083537353        4.09685312224834
C            4.71224991041993        0.30934068118943        5.38824710570469
C            4.68358317311255        1.55685353466118        5.94565305263558
C            4.13107647128534        2.63851790473392        5.23964580094740
C            3.61578327334642        2.45379682867641        3.98764665721038
Cl           0.92416169503279        3.06609613982853       -0.03329388395992
H            0.78095822666597       -0.23932919923073       -0.87961426995967
H            1.15561017324193        1.05866837276250        0.08213942307442
H            0.59780160841576       -0.35537371642089        0.77857467417737
H            3.18999394227499        0.02624057898812       -0.58631608059163
H            2.57910752804838       -1.56756673756605       -0.09157595665500
H            3.70397491149166       -2.34362013366648        1.78064682511035
H            4.63026013276190       -2.01514681670101        4.02946915559566
H            2.68853800977011        1.80601817176058        1.56297104751100
H            5.13592601148204       -0.52412473359770        5.92978995464048
H            5.08493448612565        1.72319721167231        6.93447246977454
H            4.11728771130344        3.61755323518933        5.69626126343511
H            3.18572437041537        3.27919945554886        3.43697230139992
