36
 energy: -53.285380287634 gnorm: 0.000631671218 xtb: 6.5.1 (fef0646)
N            3.07144400719932       -0.68665750210330       -0.59206317988279
C            2.86174946873386        0.28876825281669        0.51232580065201
C            3.34080832369073        1.64181935001035       -0.03250273799890
O            4.53234202603697        1.33295323886729       -0.72393596197381
C            5.09170748584980        2.28507329432565       -1.58731779635919
C            6.07118040073634        1.80116585254110       -2.46827978889427
C            6.50057866876190        0.44100222884482       -2.48370301180650
C            7.44100854651568        0.01097846965578       -3.35714352628366
C            6.66173773931565        2.71163687596861       -3.37868696683458
C            6.27226295491362        4.07499856917089       -3.38028745113894
C            5.30564588273352        4.50066582928661       -2.47173831725407
C            4.71803772442048        3.61596621933833       -1.58484558859714
C            6.88585422436273        4.96643226017902       -4.30912844400518
C            7.82497021601240        4.53142690027311       -5.18016267946599
C            8.23701400168061        3.16582199411415       -5.20360017394434
C            9.20314589456882        2.69645244441775       -6.09479461255241
C            9.58143212467380        1.36541564133859       -6.09354485127471
C            9.01037164969129        0.47214685361107       -5.20606416552605
C            8.04130231723620        0.89771138166995       -4.29554717033554
C            7.64434257072933        2.25789939354534       -4.29092350668528
H            3.23693114156137       -1.64245819427343       -0.26704837079984
H            3.93698795225984       -0.27417264343246       -1.05226254677222
H            2.29876594290705       -0.68336425426948       -1.26584669838187
H            3.49026231307867       -0.00459605890747        1.35402720893625
H            1.82156811207288        0.32484704149407        0.83090878506265
H            3.51950319436058        2.33938882894775        0.79154754535501
H            2.59930312699369        2.07844784376376       -0.71510583527893
H            6.08272397990860       -0.24521353849749       -1.75883419829898
H            7.76153233499940       -1.02080148261750       -3.35366377956084
H            5.00965792962517        5.53815133606229       -2.45769454428485
H            3.97883634182747        3.98259653109383       -0.88988615774261
H            6.57947334778439        6.00173710180581       -4.29648485302679
H            8.28571537062908        5.21293001673580       -5.87959889984681
H            9.65656045211342        3.38695191211417       -6.79035395056522
H           10.33039028832091        1.02176812717721       -6.79082013701673
H            9.31235194369531       -0.56482011506778       -5.20909943761617
