  13
  -20.331145910000000       0.13574014180037489      !mtd2
 N          0.0922272932        1.3203019012        0.7760069444
 C          0.7016353181        1.2926184445       -0.5451632507
 C          1.1395047604       -0.1169435461       -0.9432958491
 C          2.1472271499       -0.6301986767       -0.0971601480
 N          2.9615697466       -1.0166506977        0.6267732885
 Cl        -2.6263631724       -0.4797666806        0.0354450869
 H         -0.0808043724        2.2723605467        1.0806005862
 H          0.7263061034        0.9082604304        1.4513876003
 H         -1.5498424129        0.2434981872        0.3522740134
 H          1.5690641984        1.9661260249       -0.5720985520
 H         -0.0192078399        1.6893140401       -1.2711213399
 H          1.4948073698       -0.1341575171       -1.9805912678
 H          0.2751504839       -0.7897296056       -0.9059553281
  13
  -20.331134389999999       0.13409545959292871      !mtd6
 N          0.1082377262        1.2461360846       -0.8928212994
 C          0.6935776787        1.3434238231        0.4358981876
 C          1.1205017344       -0.0223686859        0.9739066157
 C          2.1397928194       -0.6158742798        0.1969370054
 N          2.9637818840       -1.0704411492       -0.4746631607
 Cl        -2.6211699176       -0.4883645870       -0.0415260533
 H          0.7540164687        0.7730327649       -1.5147650698
 H         -0.0588855928        2.1652545758       -1.2886998476
 H         -1.5400690393        0.2065970546       -0.4029692448
 H         -0.0397943164        1.8081525913        1.1082040365
 H          1.5614128765        2.0152598704        0.4145696516
 H          0.2548746317       -0.6942370965        0.9869734169
 H          1.4590795867        0.0590647314        2.0138731764
  13
  -20.330750699999999        8.9347490284259173E-002 !mtd1
 N          0.0646492995        0.5189059621        0.5607965778
 C          0.5133148841        0.2864570344       -0.8010282804
 C          2.0254617121        0.4429634775       -0.9604133880
 C          2.7518653793       -0.4171978183       -0.1075108898
 N          3.3032093522       -1.1234813393        0.6230471360
 Cl        -3.2306148908        0.0328044708        0.2475425908
 H          0.3421822119        1.4475212643        0.8576423624
 H          0.5397877989       -0.1241716140        1.1847016701
 H         -1.9163013803        0.2264423823        0.3831596990
 H         -0.0263304162        0.9652122735       -1.4748501716
 H          0.2103272990       -0.7260728523       -1.0954722519
 H          2.3122331386        1.4780349716       -0.7427010174
 H          2.3246904723        0.2601516042       -1.9995544471
  13
  -20.330748239999998        8.9115206999367091E-002 !mtd6
 N         -0.1282385936       -0.6275083466       -0.4307884435
 C          0.5716057383        0.6436713750       -0.4959747431
 C          2.0332814083        0.4933815553       -0.9171642640
 C          2.7590834470       -0.3619029309       -0.0588714146
 N          3.3078516591       -1.0844028817        0.6576409122
 Cl        -3.1719397238        0.3674760140        0.5380754469
 H          0.3517433945       -1.2414130525        0.2180400023
 H         -0.0830458298       -1.0887986263       -1.3324266905
 H         -1.9597021151       -0.0397924729        0.1534856455
 H          0.5152897620        1.1191120285        0.4921064215
 H          0.0319871706        1.3128580211       -1.1779973894
 H          2.5263045877        1.4721639245       -0.9546998523
 H          2.0822924631        0.0927907387       -1.9361865939
  13
  -20.330747250000002        8.9021897644437478E-002 !mtd5
 N          0.0650536454        0.5124182347        0.5661035108
 C          0.5094274893        0.2741577842       -0.7961525694
 C          2.0204083120        0.4347504892       -0.9624063942
 C          2.7534587195       -0.4174094007       -0.1071826934
 N          3.3119907265       -1.1169878673        0.6244023209
 Cl        -3.2310904045        0.0414666968        0.2435351650
 H          0.5415460481       -0.1280749306        1.1913570953
 H          0.3440636054        1.4422738406        0.8581965438
 H         -1.9164251276        0.2297136315        0.3831507605
 H         -0.0350036766        0.9476265129       -1.4714237094
 H          0.2085227651       -0.7408511662       -1.0841323820
 H          2.3044606467        1.4721863209       -0.7525122337
 H          2.3160565133        0.2464319827       -2.0015952921
  13
  -20.330427130000000        6.3442440611270370E-002 !mtd5
 N          1.1788556000        2.9396593414       -0.2243135516
 C          2.3029004854        2.0899247035        0.1169358041
 C          2.2723504137        0.7464662751       -0.6116382864
 C          1.0908420674        0.0166227591       -0.3545189689
 N          0.1003121606       -0.5372950291       -0.1316298422
 Cl        -2.7343928333       -2.1907259980        0.4821174971
 H          0.3081210279        2.4771282882        0.0059317018
 H          1.1588210375        3.1274085385       -1.2196918277
 H         -1.6057579929       -1.5395679819        0.2384923841
 H          2.2935821324        1.9269298762        1.2026372253
 H          3.2336041964        2.6318222146       -0.0932680656
 H          3.1412529566        0.1377191943       -0.3342910120
 H          2.3544598134        0.9131948419       -1.6917842530
  13
  -20.330423490000001        6.3198541195600547E-002 !mtd1
 N          1.3739229970        2.8235512169        0.4600837935
 C          2.0782515129        2.2193758535       -0.6538621401
 C          2.3162197422        0.7216605902       -0.4618603564
 C          1.1161001889        0.0017437609       -0.2716980766
 N          0.1111321647       -0.5445037760       -0.1006241868
 Cl        -2.7686023718       -2.1690997067        0.3620352978
 H          1.8908190969        2.6994642283        1.3223397910
 H          0.4742599061        2.3769368473        0.5889011509
 H         -1.6230046184       -1.5286928456        0.1758825505
 H          3.0255742635        2.7534436376       -0.8061893124
 H          1.4917422599        2.3909146711       -1.5650014628
 H          2.9636280035        0.5617829738        0.4077820035
 H          2.8565168972        0.3040680121       -1.3200355698
  13
  -20.330419249999998        6.2915620556586727E-002 !mtd1
 N          1.3600287609        2.8223337776        0.4522531407
 C          2.0797859284        2.2181138649       -0.6517658299
 C          2.3201010726        0.7215384543       -0.4537441644
 C          1.1202334513       -0.0009775454       -0.2720070711
 N          0.1149038707       -0.5485180884       -0.1072319490
 Cl        -2.7675008715       -2.1655847824        0.3639289669
 H          0.4598825278        2.3737356122        0.5727611939
 H          1.8681995709        2.7011589174        1.3197645329
 H         -1.6204037892       -1.5285034706        0.1756053611
 H          3.0271675260        2.7548665878       -0.7939892868
 H          1.5036063539        2.3859072557       -1.5701631234
 H          2.9603781708        0.5655944884        0.4218771289
 H          2.8688378147        0.3031492976       -1.3061559532
  13
  -20.330112119999999        4.5458103099188955E-002 !mtd2
 N          2.6689083908        3.3622236166       -0.0758441149
 C          1.5241283186        2.4745144925       -0.0045979078
 C          1.8896823477        1.0004387503       -0.1616357696
 C          0.7773051662        0.1309993466       -0.0915814898
 N         -0.1432003342       -0.5670066138       -0.0317642497
 Cl        -2.7475133498       -2.6544478863        0.1461209352
 H          3.1458029456        3.2679595669       -0.9647304890
 H          3.3404587045        3.1436838973        0.6500674062
 H         -1.7139339002       -1.8275321467        0.0754342204
 H          0.7988202970        2.7666121952       -0.7751808364
 H          1.0088263195        2.6346068221        0.9505089801
 H          2.6155147632        0.7185800415        0.6094353508
 H          2.4041373099        0.8500913773       -1.1175848985
  13
  -20.330102889999999        4.5016268756471425E-002 !mtd6
 N         -0.3726347224        1.9098120233        0.2132651941
 C          0.8171393346        1.2150613771       -0.2570676804
 C          1.0752441629       -0.0858748007        0.5002771022
 C          2.2474740706       -0.7590035439        0.0887503328
 N          3.2118566983       -1.2930702838       -0.2599919315
 Cl        -2.5602107820       -0.5852801732       -0.1319328166
 H         -0.5185053206        2.7705284802       -0.3027874132
 H         -0.2605932103        2.1725644946        1.1866316296
 H         -1.7084415314        0.4337317061        0.0018463518
 H          1.6960899399        1.8692876839       -0.1783974757
 H          0.7030203645        0.9948966376       -1.3256734336
 H          0.2178526737       -0.7573221020        0.3779144969
 H          1.1357751726        0.1213860786        1.5746586468
  13
  -20.330091740000000        4.4488248688163208E-002 !mtd2
 N         -0.3708152174        1.9196551244       -0.1152483675
 C          0.8113439498        1.1993969200        0.3355198387
 C          1.0841745242       -0.0561428316       -0.4901952672
 C          2.2483457746       -0.7530442602       -0.0957087363
 N          3.2051524699       -1.3091212457        0.2392139540
 Cl        -2.5601003280       -0.5915975477        0.0614771541
 H         -0.2424806061        2.2364967086       -1.0701483993
 H         -0.5263258550        2.7502234963        0.4457546661
 H         -1.7079889622        0.4338408938       -0.0032344103
 H          0.6783220008        0.9182017338        1.3883524292
 H          1.6901437584        1.8566621046        0.3101460725
 H          1.1651150581        0.2123138910       -1.5494493035
 H          0.2246630060       -0.7328378129       -0.4228340126
  13
  -20.329767740000001        3.1575135235973266E-002 !mtd2
 N         -0.3061837104        1.3096864093       -0.2195772000
 C          0.5872965602        0.1753592376       -0.0572798377
 C          2.0625494929        0.5400271330       -0.2046261570
 C          2.9358844440       -0.5608408337       -0.0500563444
 N          3.6360568320       -1.4719839154        0.0787513645
 Cl        -3.2913450784       -0.1482575973        0.1943601617
 H         -0.1633283843        1.7321125326       -1.1301052552
 H         -0.0814349224        2.0268717970        0.4617223165
 H         -2.1041927046        0.4400770613        0.0282335239
 H          0.3175321275       -0.5988323801       -0.7874587167
 H          0.4099989187       -0.2810139930        0.9244443557
 H          2.3244708566        1.3122260750        0.5274567822
 H          2.2310886591        0.9972746854       -1.1862792418
  13
  -20.329203400000001        1.7377708677211161E-002 !mtd2
 N          1.1617028355        2.9474643477       -0.3165977270
 C          2.2466929020        2.1012371339        0.1470255882
 C          2.2767061440        0.7604026300       -0.5860668677
 C          1.1116734736       -0.0056315586       -0.3595805053
 N          0.1361971235       -0.5932674687       -0.1575483209
 Cl        -2.7244938123       -2.1924344198        0.4731602446
 H          1.0768240810        3.7958555067        0.2310740644
 H          0.2782644839        2.4546503554       -0.2654323121
 H         -1.5853621038       -1.5635703565        0.2197732528
 H          2.1488591984        1.9267789389        1.2271463081
 H          3.1931145085        2.6375882560        0.0038782079
 H          3.1569326161        0.1766940812       -0.2910492788
 H          2.3765976349        0.9404261813       -1.6626285076
  13
  -20.329196050000000        1.7243073770681284E-002 !mtd1
 N          1.4334927394        2.8300221177        0.5037867575
 C          2.0174802525        2.2249770629       -0.6798727038
 C          2.3016027790        0.7368062157       -0.4779156326
 C          1.1257303455       -0.0119398805       -0.2495816255
 N          0.1392980943       -0.5835299320       -0.0546357985
 Cl        -2.7576397434       -2.1882019848        0.3586995265
 H          1.1542928147        3.7910979671        0.3447415927
 H          0.6150391684        2.3130651405        0.8018360476
 H         -1.6029567344       -1.5584888425        0.1926498639
 H          2.9429745194        2.7621649707       -0.9260255549
 H          1.3446941439        2.3568193468       -1.5371033235
 H          2.9720820236        0.6111962607        0.3798512907
 H          2.8321724900        0.3222340676       -1.3436336534
  13
  -20.329199790000001        1.7311451016613948E-002 !mtd4
 N          1.1966520964        2.9609421064       -0.2817419652
 C          2.2770695291        2.0883660247        0.1419740794
 C          2.2629481448        0.7575744964       -0.6096820609
 C          1.0898844148        0.0098419931       -0.3643004821
 N          0.1098346551       -0.5644257237       -0.1464350436
 Cl        -2.7294177893       -2.2083025709        0.4664261381
 H          0.3057939117        2.4840600154       -0.2139484119
 H          1.1424618283        3.8036246128        0.2787675107
 H         -1.5990075139       -1.5606289620        0.2216578965
 H          2.2038666177        1.9007202766        1.2218360598
 H          3.2294435892        2.6090469713       -0.0185541033
 H          3.1391337108        0.1535168953       -0.3451914321
 H          2.3390251033        0.9508262275       -1.6858963310
  13
  -20.328738290000000        1.0622891750809865E-002 !mtd3
 N         -0.3240136474        1.8586150980       -0.0025450481
 C          0.8080076842        1.7606680528       -0.9045788477
 C          1.9552796343        0.9109231378       -0.3552170980
 C          1.5968804865       -0.4368917259       -0.1319842860
 N          1.2531178453       -1.5257267008        0.0523807605
 Cl        -1.9920841612       -1.1188568157        0.5101668803
 H         -0.0355529343        2.1938749743        0.9087073125
 H         -0.7736039471        0.9586174952        0.1357612209
 H         -0.7249397759       -1.4600284545        0.3449322383
 H          1.1541061379        2.7773886953       -1.1338803109
 H          0.4582771745        1.3466908334       -1.8582901524
 H          2.3088629962        1.3417270223        0.5883223085
 H          2.8134659774        0.9409332260       -1.0376489740
  13
  -20.328738260000002        1.0622554523497137E-002 !mtd5
 N         -0.3213792057        1.8577006229        0.0013401762
 C          0.8067511281        1.7600952555       -0.9056230079
 C          1.9563721239        0.9101097259       -0.3615583307
 C          1.5975298299       -0.4366794755       -0.1329137891
 N          1.2526589950       -1.5243582474        0.0561415828
 Cl        -1.9932519828       -1.1184483534        0.5103723159
 H         -0.7717352423        0.9582532269        0.1393272293
 H         -0.0284263483        2.1904693749        0.9122839717
 H         -0.7258014837       -1.4595747866        0.3469933347
 H          1.1518911330        2.7768712326       -1.1361092225
 H          0.4528710705        1.3464745164       -1.8579593305
 H          2.3167120957        1.3427522542        0.5785714398
 H          2.8101656827        0.9372712672       -1.0495990289
  13
  -20.328737759999999        1.0616935643869761E-002 !mtd5
 N         -0.4384960545        1.7090606723       -0.6672023878
 C          0.9261909441        1.9143352539       -0.2196992043
 C          1.8960627673        0.8335035316       -0.7006039961
 C          1.5824856011       -0.4557525112       -0.2164799728
 N          1.2765364355       -1.4951105824        0.1883197906
 Cl        -1.9652112807       -1.0834168556        0.6675397196
 H         -0.4807396835        1.6130520610       -1.6746813241
 H         -0.8428410594        0.8678809135       -0.2670206276
 H         -0.6908536806       -1.4155460882        0.5444003046
 H          0.9298395122        1.9603541734        0.8770804571
 H          1.2531613927        2.9060601117       -0.5571016281
 H          2.9224749453        1.0827362391       -0.4053398983
 H          1.8986712914        0.8070667339       -1.7962519682
  13
  -20.328733809999999        1.0572650853874084E-002 !mtd6
 N         -0.4383562545        1.7077123970       -0.6701190080
 C          0.9249657307        1.9141452307       -0.2189732618
 C          1.8970763712        0.8343457951       -0.6976880804
 C          1.5825973682       -0.4555889234       -0.2159758299
 N          1.2763175026       -1.4956426763        0.1867753144
 Cl        -1.9651946577       -1.0829337054        0.6677284491
 H         -0.8433169614        0.8670571899       -0.2698439949
 H         -0.4776572497        1.6102337705       -1.6777282451
 H         -0.6909578003       -1.4153084445        0.5440748888
 H          0.9257196595        1.9598380357        0.8778296147
 H          1.2518843057        2.9062768739       -0.5552192147
 H          2.9223424297        1.0838913205       -0.3987294473
 H          1.9034031265        0.8090297579       -1.7933486959
  13
  -20.328452649999999        7.8518446947209927E-003 !mtd5
 N          2.6450626152        3.3591074302       -0.0644846024
 C          1.5010583035        2.4654333635       -0.0165426031
 C          1.9009818887        0.9986073491       -0.1544475875
 C          0.8088417641        0.1041487738       -0.0813862045
 N         -0.0972785201       -0.6123881735       -0.0213119112
 Cl        -2.7360290455       -2.6542505948        0.1529019525
 H          2.3700661008        4.3315311787        0.0088406010
 H          3.1577093756        3.2488938210       -0.9312641712
 H         -1.6871471852       -1.8465186640        0.0844655646
 H          0.7765609519        2.7288024791       -0.7990562081
 H          0.9795447295        2.6099264078        0.9376510625
 H          2.6296041630        0.7487217668        0.6251658703
 H          2.4269876792        0.8496915290       -1.1043065537
  13
  -20.327279019999999        2.2678206070914169E-003 !mtd2
 N         -0.4444190472        1.7450950118       -0.6059914220
 C          0.9504677046        1.9080626134       -0.2339242627
 C          1.8412038366        0.7991950867       -0.7970790127
 C          1.5729165870       -0.4714588121       -0.2412981951
 N          1.3073245581       -1.4947489962        0.2279185756
 Cl        -1.9451796388       -1.0991767239        0.6438325578
 H         -1.0270642521        2.4904662868       -0.2416555526
 H         -0.8242263652        0.8695709869       -0.2599906099
 H         -0.6687522268       -1.4265848701        0.5327495306
 H          1.0453174298        1.9386314036        0.8598467381
 H          1.2918584385        2.8847562590       -0.5998554176
 H          2.8997769985        1.0388133725       -0.6392637138
 H          1.7011146903        0.7452835696       -1.8828358073
  13
  -20.326831739999999        1.4127100721643198E-003 !mtd5
 N          1.3667547470        2.8621467043        0.4515169660
 C          2.0439444397        2.2256713003       -0.6637767401
 C          2.2954810795        0.7374675682       -0.4184897771
 C          1.1078142049       -0.0095427839       -0.2499237034
 N          0.1282898184       -0.6092011961       -0.1126344135
 Cl        -2.7684081587       -2.2042461742        0.3573935299
 H          1.2373671802        3.8576321741        0.3087985912
 H          1.8763440283        2.7314743587        1.3177847301
 H         -1.6188050254       -1.5711118457        0.1710943566
 H          2.9873202424        2.7472887488       -0.8767893989
 H          1.4174593763        2.3420216896       -1.5565809066
 H          2.9168301398        0.6155957305        0.4759185382
 H          2.8720815485        0.3051427906       -1.2454866731
  13
  -20.325247670000000        2.6428035041105476E-004 !mtd6
 N         -0.2429657398        1.7937871064        0.2000402966
 C          0.6500586184        1.6330604774       -0.9376663934
 C          1.9049806416        0.8300629373       -0.5926512544
 C          1.6332658294       -0.4798919264       -0.1389194355
 N          1.4000459399       -1.5481083486        0.2368341087
 Cl        -1.9927865403       -1.0684029017        0.4772439855
 H         -0.9611415299        2.4861513823        0.0069832738
 H          0.2751135244        2.1277577021        1.0056605002
 H         -1.2776706344        0.0534017930        0.3745486362
 H          0.9273658682        2.6172090900       -1.3407066991
 H          0.0976417599        1.1199410083       -1.7342615329
 H          2.4721196425        1.3567747746        0.1832593598
 H          2.5717936574        0.7718985012       -1.4617432275
  13
  -20.325245240000001        2.6360164934443193E-004 !mtd2
 N         -0.4201615640        1.5217948512       -0.9061115474
 C          0.7790565556        1.8288598477       -0.1410384885
 C          1.9305198505        0.8678218433       -0.4397268774
 C          1.6326163252       -0.4820911819       -0.1486428783
 N          1.3765733630       -1.5845648486        0.0874002427
 Cl        -1.9634127623       -1.0213201977        0.6693990557
 H         -0.1896677689        1.4158503216       -1.8881068507
 H         -1.0973240786        2.2770274691       -0.8443187870
 H         -1.3324999247       -0.0293108521        0.0382683494
 H          0.5261435461        1.7732178764        0.9256280065
 H          1.0904858028        2.8650399074       -0.3292396188
 H          2.8270738009        1.1607117730        0.1201939697
 H          2.2025994372        0.9438717660       -1.4988003750
  13
  -20.324048080000001        7.4262827460679174E-005 !mtd1
 N         -0.2089933353        1.5268295887       -1.0567351842
 C          0.9126955636        1.9566162007       -0.2369470262
 C          1.4287499914        0.8576296223        0.6995043576
 C          1.4909026006       -0.4127916541        0.0853466761
 N          1.4391906240       -1.4451943178       -0.4330414677
 Cl        -1.9008338242       -1.0570959380        0.4066643129
 H         -0.8296740156        0.9304324619       -0.5200797421
 H          0.1153748428        0.9495788661       -1.8240871904
 H         -0.6886823763       -1.4918643310        0.1076629921
 H          0.6091190637        2.8433960574        0.3354070734
 H          1.7155991582        2.3005061526       -0.9016013703
 H          0.7625558556        0.7763044633        1.5668961817
 H          2.4122681495        1.1228552979        1.1053423963
  13
  -20.324042599999999        7.3833430396459530E-005 !mtd5
 N         -0.0613265762        1.8141267551        0.4443151773
 C          0.8701291559        1.8738319084       -0.6709917165
 C          1.2400111656        0.4908646983       -1.2202031683
 C          1.4618822708       -0.4687582395       -0.2078271308
 N          1.5452297690       -1.2378594801        0.6517003818
 Cl        -1.9038941210       -1.0637004925        0.3738396737
 H         -0.7493157749        1.0847295723        0.2901087570
 H          0.4217890025        1.5473548162        1.2943387434
 H         -0.6422707099       -1.4025393564        0.5766764160
 H          1.7715842296        2.4078187462       -0.3412263546
 H          0.4333245954        2.5002133063       -1.4591362768
 H          2.1195824670        0.5538813160       -1.8717074768
 H          0.4260464049        0.1223673676       -1.8563974464
  13
  -20.322136700000001        9.8256672315717261E-006 !mtd3
 N         -0.3126328144        1.8585457437        0.0203064399
 C          0.7945773120        1.7722628668       -0.9113087764
 C          1.9360189692        0.8926085198       -0.4019591770
 C          1.5362537368       -0.4372739679       -0.1447197000
 N          1.1738217848       -1.5135842960        0.0711899074
 Cl        -1.8648011013       -1.1310580629        0.5090836686
 H          0.0056659653        2.1825631890        0.9254870166
 H         -0.7328312173        0.9442783339        0.1636159931
 H         -3.1689193077       -1.0577199746        0.6993903199
 H          1.1503462378        2.7882214952       -1.1281482835
 H          0.4167385932        1.3815230996       -1.8641006453
 H          2.3438824136        1.3211910465        0.5204749791
 H          2.7644032844        0.8851828134       -1.1206835480
