13
 energy: -20.336646224987 gnorm: 0.000432418686 xtb: 6.5.1 (fef0646)
N            1.04289734509255       -0.37956120510368        0.08831574392724
C            2.49545708317021       -0.23139949375107        0.09199399789648
C            2.96750911196382        0.16994315173499       -1.31096518303879
C            4.39810641427453        0.33004978624179       -1.34337086996895
N            5.53516404160081        0.44158955237240       -1.35413809755930
Cl          -0.17361732300530        2.03104615863963       -1.11350254200021
H            0.68592075021235       -0.52127521459338        1.02606862666529
H            0.75722104912057       -1.16291711980521       -0.49062372581227
H            0.37010707852343        0.92278022941725       -0.53816100777304
H            3.01233804058890       -1.14997824072632        0.40539016648360
H            2.74997376016620        0.56084361288994        0.79986670004317
H            2.49462500085105        1.11145756586302       -1.60037515519201
H            2.68719764744106       -0.59625878317926       -2.03941865367124
