42
 energy: -47.465886061489 gnorm: 0.000521332829 xtb: 6.5.1 (fef0646)
N            2.89038589118115       -2.21772421198041       -2.15366361639354
C            4.32833190192211       -1.95134716658098       -2.19298708803606
C            4.74080198525360       -1.01483337902105       -1.05864695008651
C            4.43728292892844       -1.54254217403674        0.34589566743561
C            5.04111401481355       -2.90918837419405        0.67491743512899
C            6.56762380804795       -2.92708671631141        0.63112812716408
C            7.12633719750845       -4.27985648977656        1.06614871851420
C            8.65180000322919       -4.31988313063810        1.02040754524826
C            9.19539936273576       -5.68569866395606        1.43212163981216
C           10.72063987374303       -5.73931888895713        1.39822374006198
C           11.24931069824828       -7.11536491253959        1.79532134626597
C           12.77440982276576       -7.17939659724669        1.77595576055091
C           13.28670527272483       -8.56184391299411        2.16086903924429
Cl           1.34516652314955        0.25483925949100       -2.01680994515937
H            2.58925191345516       -2.73293660358028       -2.97284087620455
H            2.10033775935111       -0.90485026975299       -2.08599193141806
H            2.64810336333828       -2.74855573814963       -1.32399462780900
H            4.54460332693225       -1.46370258026091       -3.14630940989198
H            4.91494509627047       -2.87892559189053       -2.14936253028647
H            4.21038384131244       -0.07102621800103       -1.18636474972169
H            5.80843820061986       -0.81541991287343       -1.15453500224859
H            3.35489924776548       -1.58873681443419        0.48195933097432
H            4.81713123656477       -0.81339949210740        1.06436751301184
H            4.65475592852295       -3.67002030139950       -0.00730091469370
H            4.71817497559904       -3.18985721550599        1.68069449376794
H            6.95568591255601       -2.14631313474134        1.28891037413159
H            6.91358856980488       -2.71043169450703       -0.38123345184383
H            6.72771088042144       -5.06121414144600        0.41376300344035
H            6.79137516772706       -4.49939564958698        2.08272633812434
H            9.05393406056395       -3.55352581817505        1.68702027750251
H            8.99047809684686       -4.08637322929019        0.00804294848701
H            8.79420981065709       -6.44923925053203        0.76105282479973
H            8.84961507551827       -5.92113544426712        2.44149340655102
H           11.12442894714068       -4.98586485821617        2.07866332661165
H           11.06925043617153       -5.49458149640978        0.39194579389966
H           10.84959755622217       -7.86606867114729        1.10913300569214
H           10.89205649337859       -7.36277728626836        2.79790558472956
H           13.17538656635444       -6.43714902574103        2.47000411768556
H           13.13367233103113       -6.92443372769456        0.77623046083739
H           12.95127075369908       -8.82780160595430        3.16105885880684
H           14.37383394973817       -8.58708661296730        2.14548229943272
H           12.91613121818484       -9.31270225635629        1.46617811587996
