42
 energy: -47.508520597773 gnorm: 0.000528013344 xtb: 6.5.1 (fef0646)
N            2.87208520243388        2.92683591119638        0.68377485061010
C            4.33221561244902        2.83528393547873        0.89635956625730
C            4.68161500913048        2.92396865184302        2.37611076203477
C            4.26445837389898        1.69597615901192        3.18732513395525
C            4.96537613492440        0.39422663870936        2.78854377081417
C            6.49442923518644        0.43264330859202        2.82279138704466
C            7.05884414326132        0.71117330826220        4.21416076037481
C            8.58488563972355        0.65526694929045        4.23293820840328
C            9.14813599036788        0.90624846800973        5.62983874839001
C           10.67473254681078        0.88277327949625        5.64910571692652
C           11.23472029123636        1.11911524819846        7.04976958879295
C           12.76166992007479        1.12036339326606        7.06737936185590
C           13.31374950690770        1.35262943988011        8.46892092918138
Cl           0.97817512899298        0.72353655773066        1.65915212434190
H            2.64188954523753        2.93537333687355       -0.31258464173810
H            2.49783638403567        3.76922854766491        1.12745255607642
H            2.35240248597531        2.11478389509533        1.09651069664940
H            4.81188872196301        3.65762809727838        0.36396357349382
H            4.68763102413100        1.89273869209253        0.48467528723719
H            4.19692982070837        3.80049379610594        2.80846087925094
H            5.75683447027313        3.06777250991754        2.47210197930239
H            3.19001661689836        1.52948691040040        3.08962155673759
H            4.46122108447936        1.89506881756564        4.24180478909638
H            4.63898091901826        0.09792521017395        1.78994569733155
H            4.61882721789572       -0.38925410523452        3.46796828415036
H            6.86828810252026        1.18165873674388        2.12389810328080
H            6.86535174150709       -0.53828216203892        2.48440547903454
H            6.66189624757361       -0.02616525594831        4.91663031692564
H            6.73896118799986        1.69681791719036        4.55507922863380
H            8.98293938613431        1.40425153857808        3.54457256913361
H            8.91714931458345       -0.32466598960707        3.88162303850223
H            8.76701030185242        0.14421156888764        6.31413676866477
H            8.79908458311667        1.87629561710663        5.99146421571938
H           11.05585198174508        1.65277296036846        4.97425898307373
H           11.02612286418513       -0.08326993167102        5.27857925641879
H           10.86739623024475        0.33948316130461        7.72155874194742
H           10.87012651030938        2.07739654162696        7.42731276620125
H           13.12812219188862        1.90268165744873        6.39898428451222
H           13.12675426767931        0.16342734556043        6.68743922172814
H           12.97278438144008        2.30919014517604        8.85845511628951
H           14.40081720182908        1.35361410588406        8.45689057720727
H           12.97794247940187        0.56937508648952        9.14485976615949
