  24
        -32.14990750
 N          3.8240556165        0.4885133411       -0.8083942191
 C          3.1166485902        0.3664639013        0.4973977057
 C          1.6828995327       -0.0286979830        0.3369301678
 C          1.3339286425       -1.3709870058        0.2045665953
 C          0.0168323762       -1.7550852780        0.0358541090
 C          0.6849741186        0.9366280785        0.2815367133
 C         -0.6662950844        0.5840349619        0.1145856222
 C         -1.0097566100       -0.7971044678       -0.0105877997
 C         -2.3610630114       -1.1502955700       -0.1750285468
 C         -3.3429141578       -0.1786115518       -0.2140570121
 C         -3.0105482136        1.1613598450       -0.0922086022
 C         -1.6924611486        1.5448141691        0.0696975451
 H          3.8093001090       -0.4048106300       -1.3217697251
 H          4.8107994380        0.7639593141       -0.6876153007
 H          3.3724447933        1.1947248481       -1.4078443521
 H          3.1783370526        1.3169850688        1.0400665515
 H          3.6306076271       -0.3682101452        1.1283846104
 H          2.1088256751       -2.1192303297        0.2386851189
 H         -0.2335981580       -2.7989114884       -0.0593968356
 H          0.9482477238        1.9762004978        0.3722383230
 H         -2.6260763783       -2.1905688427       -0.2693529507
 H         -4.3760466443       -0.4650230915       -0.3393846545
 H         -3.7870530866        1.9103915612       -0.1228534829
 H         -1.4416170160        2.5882766293        0.1659810895
