39
 energy: -62.160964715387 gnorm: 0.000857405504 xtb: 6.5.1 (fef0646)
N            3.35724574700006       -0.95750549250498        0.03957671659437
C            2.67936055378481        0.36045980421503        0.18522258126111
C            3.63219284305819        1.33304490361374        0.88834752341284
C            4.85899919510014        1.56268021377059        0.06994695981357
C            5.16441652166584        2.60603793361134       -0.74577868519479
C            6.38005762043497        2.44991209914297       -1.43695366857214
C            7.02730379236948        1.27058878091244       -1.17395561498045
C            8.25482260710622        0.78143915809608       -1.68442708957424
C            8.90920162397266       -0.39302681249251       -1.37428586526591
C           10.10903388120500       -0.55534978716606       -2.06009921975792
C           10.40006717698140        0.49282827120668       -2.91415614593293
C           11.53437117522532        0.64280058858391       -3.75382860064113
C           12.59663042656620       -0.22620526743193       -3.90853337106970
C           13.55048716597372        0.22473275277727       -4.81803269722493
C           13.24261134416612        1.44662847238832       -5.37898961004440
C           13.99413818737402        2.18576137112951       -6.33441551868264
C           13.70377638295223        3.41175244421587       -6.88445902432181
C           14.67574252413398        3.84586493565417       -7.80002407884697
C           15.69546818724383        2.95559826232821       -7.94519032861681
S           15.49496134346389        1.56396169149460       -6.96576477466063
S           11.73546833837872        2.04901590901670       -4.76509277280057
S            9.15617384917256        1.70233133560925       -2.86022181098073
S            6.12348047919378        0.33570670533720       -0.00129862550323
H            2.87247257261311       -1.57783959973691       -0.61541381944495
H            3.43500873194653       -1.42328147228383        0.95047717854585
H            4.34308435690803       -0.76157913841437       -0.29198774506704
H            1.75639628896983        0.23758006223949        0.75189813550400
H            2.44034947909918        0.73669167642293       -0.81037299144924
H            3.89438993773927        0.94319960504784        1.87416953310903
H            3.11694368400385        2.28279025783940        1.02995969581792
H            4.53923421125354        3.47464502656319       -0.84768747046778
H            6.78422310784044        3.18095361440381       -2.11246617675780
H            8.52577444899458       -1.10555597687842       -0.66334977398916
H           10.75128088226207       -1.40744958657827       -1.93937083567755
H           12.67681263230424       -1.15701520812797       -3.37755601374952
H           14.44654352668659       -0.31418541298171       -5.06913829259291
H           12.82081326729863        3.97081263603737       -6.62993939070453
H           14.62297387330894        4.77947182426572       -8.32996086124806
H           16.56095803224955        3.03368341867307       -8.57272745023657
