50
 energy: -83.661607129452 gnorm: 0.000359417015 xtb: 6.5.1 (fef0646)
N            3.16230556894191       -0.71625504885635        0.22731623370960
C            2.78174739747869       -1.00471994843721        1.62105502338169
C            3.88210097750157       -1.79314979745914        2.34099754878255
C            5.09045374648330       -0.95673201859859        2.58928592840552
C            5.44527520931825       -0.29621002702355        3.72754435198975
C            6.63153460598747        0.44770421903439        3.59858048988106
C            7.19666013532347        0.36380799681547        2.35164992571934
C            8.37916625422146        0.98829566270699        1.86420254748202
C            8.95491930640601        0.86573537266736        0.62384519783959
C           10.12140384977851        1.62900223720603        0.45371476665950
C           10.90010434693832        1.57527832449583       -0.81947604165569
C           10.44581857193646        2.35442877837028        1.58802877758100
C           11.52674500784181        3.26906688598691        1.83701766923063
C           12.25742045447382        3.91217805592468        0.84965946256132
C           13.31125546928319        4.78642549929079        1.12481989226759
C           13.71410289883280        5.11088304481439        2.40896517648595
C           14.80471053296074        6.00620003215758        2.70842545093367
C           15.30027481620691        7.07069448837841        1.98709121431732
C           14.74679271242992        7.60453361080783        0.70668561723358
C           16.40550832793886        7.67709367149060        2.62958225438500
C           16.73852887574770        7.08697231567936        3.80528308353282
S           15.69641477846228        5.77824710234285        4.19066908222000
C           12.98745280782995        4.48402235817353        3.45344104521719
N           13.17452470426345        4.64083715478175        4.76481127327824
S           12.10511209137231        3.74243890160182        5.56060976604398
N           11.34684051194750        3.11270814992411        4.28698346420148
C           11.90290574638423        3.58413118406848        3.17100593339113
S            9.30946423872951        2.05227635986317        2.87829739074898
S            6.24969919978393       -0.66420700335822        1.32347268849078
Cl           1.17738216112677        1.30390796378640       -0.90077384373367
H            2.47049894077427       -0.05507730681881       -0.20822922020437
H            3.19387269099910       -1.56971031149267       -0.33480428142328
H            4.08278141290246       -0.26413339680609        0.19383572023487
H            1.85521464134268       -1.57599096157073        1.61942450372862
H            2.59885665813001       -0.05960842926898        2.13167691291298
H            4.15309293929593       -2.66596480207879        1.74746755118862
H            3.49428315422775       -2.13406043766082        3.29998054734349
H            4.87571373785356       -0.33972061127173        4.63797205747493
H            7.07368433449428        1.03158059957383        4.38650473288734
H            8.54802975696967        0.23697953456510       -0.14920317925052
H           10.63243062508348        0.67601920261467       -1.36811352599648
H           11.96957552014349        1.56314373555679       -0.62222940219328
H           10.66869728341827        2.43392547773435       -1.44930488381343
H           12.00095433139483        3.75518487192126       -0.18272418889934
H           13.84581984542211        5.20382699717324        0.28887618840903
H           13.66873236296547        7.46959534260361        0.66135685294872
H           15.19874185923903        7.10034846585804       -0.14739089367005
H           14.97481310498619        8.66460413341122        0.62771256302712
H           16.92602010434707        8.52435868748970        2.22078996392782
H           17.52820139009543        7.34523368183192        4.48133061074407
