15
 energy: -18.987832223877 gnorm: 0.000489196443 xtb: 6.5.1 (fef0646)
N            1.17958032928554        0.34777929533870       -0.27620798461531
C            2.62206133483556        0.11088947954973       -0.23357419265416
C            3.16063594750607        0.39935555030370        1.16460297575727
C            4.64483336733343        0.07341079410446        1.26846195737928
Cl          -0.20575401627363       -1.41528393176935        1.61346016557324
H            0.80078600475371        0.15674805786798       -1.19727360107234
H            0.96546799830281        1.30823532807692       -0.02774391908928
H            0.45411673822340       -0.59000965109222        0.73697309497918
H            3.16211638534669        0.72393964984824       -0.96982495183862
H            2.78832150290916       -0.94032872650613       -0.48007817354129
H            2.59785193791569       -0.19620182164369        1.88363919687212
H            3.00033378828529        1.45391375440421        1.40139991918761
H            4.81775908576161       -0.98116477445227        1.06967496388441
H            5.01282872707194        0.29911914106083        2.26574592256126
H            5.21877086874269        0.65665785490860        0.55117462661681
