  16
  -21.110849280000000       0.26963309985945033      !gc
 N          0.3146641194        1.6958648970       -0.0022702893
 C          1.4315473768        0.7621015195        0.0000090516
 C          1.3458260516       -0.3400432495       -1.0826929918
 C          1.6675421788       -1.3846828955        0.0026241261
 C          1.3460028061       -0.3327063363        1.0816219136
 Cl        -2.3834310235       -0.2625879871        0.0004178999
 H          0.3812675876        2.2973742047       -0.8158445716
 H         -1.2943174231        0.5467164813       -0.0010809283
 H          0.3818691607        2.2997316111        0.8101217879
 H          2.4027885646        1.2701570869       -0.0014165104
 H          2.0906764898       -0.2555758207       -1.8764594449
 H          0.3422568973       -0.4301266246       -1.5039724605
 H          2.7115559349       -1.7030342240        0.0035110650
 H          1.0058651540       -2.2533124531        0.0054721121
 H          2.0894384361       -0.2454814542        1.8749257097
 H          0.3436573304       -0.4209013947        1.5029782627
  16
  -21.110839590000001       0.26688243349720642      !md2
 N          0.3150956598        1.6973627477       -0.0011096808
 C          1.4310624160        0.7624958524       -0.0001460594
 C          1.3425667317       -0.3400661439       -1.0822008480
 C          1.6649932356       -1.3844974646        0.0031029822
 C          1.3460525246       -0.3317308414        1.0820967005
 Cl        -2.3812292830       -0.2638333860       -0.0005319992
 H          0.3826746967        2.3022595848        0.8098551981
 H         -1.2928287630        0.5464291068       -0.0007405876
 H          0.3825940572        2.2980307787       -0.8158476342
 H          2.4028144936        1.2695646487       -0.0031811933
 H          2.0862191049       -0.2566720023       -1.8771999353
 H          0.3382757172       -0.4294870392       -1.5018890765
 H          2.7087283691       -1.7037517362        0.0025401865
 H          1.0025555717       -2.2525399335        0.0073450801
 H          2.0907321144       -0.2448004576        1.8742649463
 H          0.3442521733       -0.4187549552        1.5049911725
  16
  -21.109668339999999        7.7277089647799127E-002 !input
 N          0.1459330463        1.0315404467       -0.9155589275
 C          1.0229121510        0.3543734793        0.0279999852
 C          2.4953710330        0.2116950948       -0.4255833433
 C          2.4416112019       -1.2714423033       -0.0126493006
 C          0.9039085084       -1.1823636631        0.0317254389
 Cl        -2.7377262704        0.2725564114        0.5734452176
 H          0.4393930777        1.9975373461       -1.0088313109
 H         -1.5663560498        0.5851042765       -0.0361175491
 H          0.2676300230        0.6158425400       -1.8325866484
 H          0.9296883922        0.7786116681        1.0339255416
 H          3.2043446914        0.8212204434        0.1381795142
 H          2.6197256255        0.3696053295       -1.4991337231
 H          2.8932114489       -1.4676667098        0.9614527427
 H          2.8342768540       -1.9649005918       -0.7591785990
 H          0.4443319700       -1.5986591958        0.9290149644
 H          0.4106192331       -1.5632316765       -0.8636669455
  16
  -21.109651790000001        7.5935508276531380E-002 !md5
 N          0.1417969390        1.0122564439       -0.9223266415
 C          1.0184749481        0.3427774256        0.0269272130
 C          2.4964961616        0.2200153700       -0.4141376810
 C          2.4578610793       -1.2649020807       -0.0059686883
 C          0.9188078157       -1.1953545475        0.0250693155
 Cl        -2.7468293497        0.2845839915        0.5723538614
 H          0.2691928197        0.5961028557       -1.8377841234
 H         -1.5744261545        0.5851650459       -0.0412670558
 H          0.4318633244        1.9797910334       -1.0155592615
 H          0.9111058050        0.7628374154        1.0331874965
 H          3.1926695597        0.8369030535        0.1574986086
 H          2.6280854976        0.3827510267       -1.4861044684
 H          2.9034683172       -1.4583171514        0.9714547513
 H          2.8659543019       -1.9509666468       -0.7510535197
 H          0.4566019422       -1.6202228504        0.9169697684
 H          0.4382999987       -1.5797551530       -0.8757493600
  16
  -21.109583879999999        7.0670087513794819E-002 !md8
 N          0.1435672708        1.0212417520        0.9205760650
 C          1.0176871133        0.3466787655       -0.0274374867
 C          0.9146849807       -1.1972044794       -0.0178589907
 C          2.4534219644       -1.2641292355        0.0085396932
 C          2.4910176638        0.2236545074        0.4082357809
 Cl        -2.7418892263        0.2781048581       -0.5728265189
 H          0.4332072271        1.9886785078        1.0105327330
 H         -1.5706340587        0.5857575046        0.0394660326
 H          0.2728469852        0.6073511374        1.8373413696
 H          0.9072431057        0.7612074122       -1.0356581143
 H          0.4491827173       -1.6260239948       -0.9074773285
 H          0.4364288135       -1.5769723766        0.8876241971
 H          2.8960244382       -1.4624513755       -0.9692681399
 H          2.8649975180       -1.9454165402        0.7560970113
 H          3.1859159391        0.8365622503       -0.1671570206
 H          2.6259376803        0.3916090185        1.4777100718
  16
  -21.109569109999999        6.9574133645369116E-002 !gc
 N          0.1429354768        1.0179256091        0.9210843201
 C          1.0182545238        0.3455422605       -0.0273678603
 C          0.9174388341       -1.1984981615       -0.0194593085
 C          2.4562483683       -1.2633067145        0.0079427906
 C          2.4915422228        0.2241904039        0.4089015606
 Cl        -2.7441994886        0.2799512708       -0.5724921695
 H          0.2709631806        0.6040373839        1.8374794512
 H         -1.5723624380        0.5853288405        0.0398064664
 H          0.4336391506        1.9854955998        1.0118603533
 H          0.9076618241        0.7609414277       -1.0352130207
 H          0.4532933979       -1.6270602084       -0.9099091616
 H          0.4390216482       -1.5798204221        0.8852832131
 H          2.8998784498       -1.4602169563       -0.9696803870
 H          2.8682206011       -1.9446415025        0.7552276592
 H          3.1857556783        0.8386719554       -0.1656344174
 H          2.6256106313        0.3914739240        1.4785869254
  16
  -21.109435340000001        6.0390881880084735E-002 !mtd6
 N          0.3000054261        1.6620970937       -0.0030362358
 C          1.5017006156        0.8407586938       -0.0000925796
 C          1.5200754479       -0.2634731332       -1.0842610317
 C          1.1504824007       -1.2914793915        0.0017592428
 C          1.5178748398       -0.2565214879        1.0826540893
 Cl        -2.3346905374       -0.3738828553        0.0013904243
 H          0.3083742614        2.2714461548        0.8075075002
 H         -1.2673065402        0.4640044612       -0.0005182979
 H          0.3117541883        2.2672260119       -0.8173124142
 H          2.4127640211        1.4507329946       -0.0005374325
 H          2.5020820181       -0.4243628709       -1.5329286656
 H          0.7579093428       -0.1231176333       -1.8542743673
 H          1.7723412755       -2.1888654051        0.0051421728
 H          0.0941598439       -1.5663887100        0.0014074138
 H          2.4978235026       -0.4155334485        1.5338543738
 H          0.7554562629       -0.1139140506        1.8502340028
  16
  -21.108723470000001        2.8432730657060236E-002 !mtd2
 N          0.1348112389        0.7367326759       -1.0546739945
 C          1.0303697658        0.4079360607        0.0439616625
 C          2.5189533814        0.2625220813       -0.3532314869
 C          2.3365815326       -1.2669442955       -0.3317662967
 C          1.0203687638       -1.0798531748        0.4473322830
 Cl        -2.7489921249        0.3263399870        0.5651865462
 H          0.3664774273        1.6572873187       -1.4109600723
 H         -1.5784895899        0.4978596131       -0.0995623931
 H          0.3074560976        0.0925549531       -1.8186494988
 H          0.8692625672        1.0810803132        0.8937662194
 H          3.2131380492        0.6368495183        0.4013998125
 H          2.7507037524        0.6800877166       -1.3358652279
 H          3.1126177320       -1.8084375807        0.2129133278
 H          2.1969711404       -1.7023985633       -1.3230177404
 H          1.1138889338       -1.2445513678        1.5212294783
 H          0.1695602499       -1.6309941488        0.0432985467
  16
  -21.108711240000002        2.8067132970043328E-002 !mtd2
 N          0.1337426132        0.7306802780       -1.0562534661
 C          1.0289453900        0.4051209058        0.0436407785
 C          2.5185259914        0.2645765270       -0.3515491735
 C          2.3410729787       -1.2654693418       -0.3304138562
 C          1.0233512889       -1.0826547250        0.4471485688
 Cl        -2.7507525858        0.3297138990        0.5648615065
 H          0.3076860911        0.0875322859       -1.8201326063
 H         -1.5799230766        0.4973522171       -0.1002876925
 H          0.3650726942        1.6521587567       -1.4118111326
 H          0.8645777311        1.0778358987        0.8931620615
 H          3.2104414778        0.6410888978        0.4040779995
 H          2.7502673670        0.6829505997       -1.3338411553
 H          3.1182080177       -1.8044879766        0.2151533591
 H          2.2040555814       -1.7012701708       -1.3218736982
 H          1.1161817343       -1.2469504307        1.5211672547
 H          0.1747947424       -1.6365662750        0.0421696501
  16
  -21.108661770000001        2.6635644771878540E-002 !mtd10
 N          0.1358015677        0.7432463539        1.0519980418
 C          1.0327187718        0.4119199023       -0.0447660475
 C          1.0201329349       -1.0823668584       -0.4469277921
 C          2.3346860753       -1.2653579118        0.3349121064
 C          2.5149554090        0.2649292018        0.3523490356
 Cl        -2.7479161169        0.3212815894       -0.5647424949
 H          0.3059656477        0.1018954595        1.8182503859
 H         -1.5773734122        0.4975353912        0.0986876129
 H          0.3685883802        1.6651838417        1.4053891551
 H          0.8728096437        1.0830165859       -0.8964163763
 H          1.1152346833       -1.2493800192       -1.5214289299
 H          0.1673341397       -1.6319904756       -0.0416572109
 H          3.1124512679       -1.8073698117       -0.2067773825
 H          2.1937511067       -1.6982139446        1.3271134567
 H          3.2098138853        0.6368131881       -0.4013040578
 H          2.7464485252        0.6841475803        1.3329521891
  16
  -21.108656990000000        2.6501257280782051E-002 !md8
 N          0.1348766257        0.7383785378        1.0535371937
 C          1.0311517247        0.4094114624       -0.0444615851
 C          1.0223804233       -1.0849586688       -0.4464181679
 C          2.3384635594       -1.2639961729        0.3337671456
 C          2.5144039223        0.2668015867        0.3504481738
 Cl        -2.7490602078        0.3241691653       -0.5645473815
 H          0.3652400329        1.6597282309        1.4086184011
 H         -1.5783700862        0.4971887266        0.0994647369
 H          0.3080681510        0.0954524137        1.8184449974
 H          0.8680542126        1.0799931008       -0.8959096294
 H          1.1166134291       -1.2518528025       -1.5210130395
 H          0.1716389280       -1.6369878792       -0.0400925532
 H          3.1170262145       -1.8039871902       -0.2087943759
 H          2.2000622600       -1.6969370116        1.3262876446
 H          3.2070294974        0.6403765906       -0.4044229742
 H          2.7462061287        0.6869787815        1.3305683132
