  16
        -21.11084928
 N          0.3146641194        1.6958648970       -0.0022702893
 C          1.4315473768        0.7621015195        0.0000090516
 C          1.3458260516       -0.3400432495       -1.0826929918
 C          1.6675421788       -1.3846828955        0.0026241261
 C          1.3460028061       -0.3327063363        1.0816219136
 Cl        -2.3834310235       -0.2625879871        0.0004178999
 H          0.3812675876        2.2973742047       -0.8158445716
 H         -1.2943174231        0.5467164813       -0.0010809283
 H          0.3818691607        2.2997316111        0.8101217879
 H          2.4027885646        1.2701570869       -0.0014165104
 H          2.0906764898       -0.2555758207       -1.8764594449
 H          0.3422568973       -0.4301266246       -1.5039724605
 H          2.7115559349       -1.7030342240        0.0035110650
 H          1.0058651540       -2.2533124531        0.0054721121
 H          2.0894384361       -0.2454814542        1.8749257097
 H          0.3436573304       -0.4209013947        1.5029782627
