15
 energy: -16.107644773077 gnorm: 0.000205037815 xtb: 6.5.1 (fef0646)
N            1.00948955204649        0.08080948439184       -0.00806945535628
C            2.50800904144550        0.08805930649663       -0.04791539476861
C            3.00800552165438        0.80506257208603       -1.29658895130085
C            4.51399499461950        0.80279548447719       -1.32161283264293
C            5.23104850280551        0.25842291404104       -2.28406108469661
H            0.65732839515029       -0.39968277489630        0.82954196099717
H            0.64258580550496       -0.39587586569374       -0.84282159534297
H            0.65580148205172        1.04716050059011       -0.01016217193486
H            2.86035284440406       -0.94436247772642       -0.04157376769411
H            2.87547563681395        0.58798659949500        0.84951485017532
H            2.65786065727642        1.84084408329042       -1.29461960140775
H            2.63465658183835        0.30977768457567       -2.19454760716381
H            4.98882444867309        1.29745678665261       -0.48687044994849
H            4.77891659930687       -0.23113706572416       -3.13064522627281
H            6.30534993640890        0.29091276794409       -2.27222867264241
