  15
        -18.18406340
 O         -1.2761991888       -0.9498775454        0.0366997166
 C         -1.3190774673        0.4472665405       -0.1716763596
 C         -0.0527927054        1.1262277673        0.3390262236
 C          1.2036349522        0.5578516047       -0.3115290551
 N          1.4680609416       -0.8489446155        0.1045422021
 H         -2.1101391313       -1.3924305837       -0.1620808563
 H         -2.2067417517        0.8509133203        0.3356960921
 H         -1.4389196856        0.6211584757       -1.2491792562
 H          0.0109384087        0.9787726894        1.4220890409
 H         -0.1138537898        2.2098735364        0.1784019074
 H          2.0808642155        1.1716208594       -0.0684141713
 H          1.0988145120        0.5988632460       -1.4025455259
 H          0.6029465228       -1.3919981527       -0.0222531838
 H          1.7188876136       -0.8923471376        1.0957870877
 H          2.2189010162       -1.2773078968       -0.4447235210
  15
        -18.17869138
 O         -1.3188163410       -0.8429726660       -0.4187344144
 C         -1.2045797147        0.2596169640        0.4583725118
 C         -0.0719062890        1.2034811474        0.0585308497
 C          1.1531314119        0.4371536185       -0.4410063208
 N          1.4491283519       -0.7827607940        0.3613700817
 H         -1.8952371383       -0.6759068216       -1.1759924770
 H         -1.0045063775       -0.1817182599        1.4440563551
 H         -2.1720142626        0.7735998908        0.5499895678
 H          0.1983434528        1.8389910077        0.9102020977
 H         -0.4178369056        1.8914690339       -0.7223086143
 H          2.0360510224        1.0892190102       -0.4652426768
 H          0.9852139935        0.1197163832       -1.4781661920
 H          1.6086899632       -0.5431327521        1.3459027635
 H          2.2790649936       -1.2696834894        0.0099101938
 H          0.6487022190       -1.4282778284        0.3022539117
  15
        -18.17860278
 O         -1.3093701614       -0.8728828076        0.3844269510
 C         -1.2144671250        0.2932601968       -0.4103896982
 C         -0.0714592375        1.2044231126        0.0334067750
 C          1.1624289732        0.4027253994        0.4479251172
 N          1.4419069520       -0.7514336663       -0.4517918478
 H         -1.9057906745       -0.7809250588        1.1389842394
 H         -2.1820901587        0.8145892235       -0.4412200109
 H         -1.0378934413       -0.0719714516       -1.4307863973
 H         -0.3988891666        1.8320474088        0.8707339549
 H          0.1815044577        1.9016325687       -0.7744310806
 H          1.0143365815        0.0056293917        1.4604364850
 H          2.0459450110        1.0517582102        0.5051562216
 H          0.6420508801       -1.4022626392       -0.4251545401
 H          2.2795194180       -1.2618209055       -0.1563044413
 H          1.5798863147       -0.4368282257       -1.4167014395
  15
        -18.17820195
 O         -1.3793346130       -0.8479695402        0.4023741153
 C         -1.2122398989        0.2812917778       -0.4323781195
 C         -0.0678736477        1.1785061027        0.0318494693
 C          1.1425849597        0.3639667043        0.4821496646
 N          1.5209290952       -0.7140444265       -0.4753922425
 H         -2.0002251492       -0.7057564646        1.1293886066
 H         -2.1622914284        0.8265238948       -0.5289248482
 H         -0.9978093641       -0.1282217338       -1.4282076299
 H         -0.4082513356        1.8146955813        0.8573356917
 H          0.2166076140        1.8664650339       -0.7731224636
 H          0.9211882062       -0.1090994060        1.4473780865
 H          2.0048119904        1.0206048436        0.6567145678
 H          2.3587511234       -1.2149931112       -0.1598656772
 H          1.7091254137       -0.3269338798       -1.4045865163
 H          0.7563313535       -1.3931473398       -0.5495753405
  15
        -18.17814269
 O         -1.4032421516       -0.8055431264       -0.4522852494
 C         -1.2028051002        0.2378900398        0.4805912096
 C         -0.0672843571        1.1709031683        0.0692138469
 C          1.1315862923        0.3980889887       -0.4751295430
 N          1.5444195668       -0.7433265355        0.3906166009
 H         -2.0301807002       -0.5842368452       -1.1540310948
 H         -0.9616449705       -0.2656662905        1.4261428359
 H         -2.1457766803        0.7746650372        0.6572996674
 H          0.2363937403        1.7881097472        0.9227364469
 H         -0.4251937715        1.8746583847       -0.6917171933
 H          1.9855007976        1.0711532248       -0.6272325426
 H          0.8825685595       -0.0050689177       -1.4649894318
 H          2.3778171750       -1.2107195183        0.0173540020
 H          0.7889950997       -1.4348089898        0.4351348772
 H          1.7544361692       -0.4233091525        1.3406135574
  15
        -18.17802454
 O         -1.4326709293       -0.7920409573       -0.4623814583
 C         -1.2026106015        0.2296059302        0.4873478725
 C         -0.0659686890        1.1589569678        0.0723942794
 C          1.1250266549        0.3839763366       -0.4846683902
 N          1.5767518550       -0.7288944636        0.3990809125
 H         -2.0622268376       -0.5453054666       -1.1533534783
 H         -0.9490280823       -0.2950331634        1.4179343412
 H         -2.1365531735        0.7722534989        0.6919592695
 H          0.2477010579        1.7710264800        0.9259048652
 H         -0.4273076556        1.8671283664       -0.6827289653
 H          1.9666086649        1.0622017576       -0.6772118876
 H          0.8526230288       -0.0474270962       -1.4563176992
 H          2.4102554131       -1.1902536980        0.0186328343
 H          0.8366968288       -1.4334819580        0.4784722077
 H          1.8021532311       -0.3819665157        1.3359131311
  15
        -18.17800439
 O         -1.4395617997       -0.8265470637        0.4145966434
 C         -1.2094512557        0.2685435260       -0.4490299437
 C         -0.0660288265        1.1554434142        0.0336775230
 C          1.1303574350        0.3326812742        0.5033998437
 N          1.5837894138       -0.6816365861       -0.4914140249
 H         -2.0501980317       -0.6283939959        1.1375505194
 H         -2.1423347154        0.8302150707       -0.6022010139
 H         -0.9639581494       -0.1784074741       -1.4210469758
 H         -0.4168969587        1.7923531007        0.8540678540
 H          0.2384923543        1.8419083115       -0.7650567043
 H          0.8642612201       -0.1970092777        1.4269995845
 H          1.9696872507        0.9918279613        0.7606655826
 H          2.4222961624       -1.1738452821       -0.1641809153
 H          1.8016112555       -0.2394335111       -1.3888621880
 H          0.8482569875       -1.3799289238       -0.6393508755
  15
        -18.17791131
 O         -1.4703268318       -0.8151006647        0.4198375629
 C         -1.2088852312        0.2624446030       -0.4565850365
 C         -0.0648176460        1.1429898267        0.0348525184
 C          1.1239201492        0.3148933830        0.5134914971
 N          1.6170895581       -0.6636513038       -0.4986917970
 H         -2.0818553855       -0.5931183591        1.1351753583
 H         -2.1317936270        0.8326911104       -0.6362888108
 H         -0.9502391159       -0.2027965084       -1.4163685446
 H         -0.4200467593        1.7804124042        0.8529041235
 H          0.2500549128        1.8286109597       -0.7604879047
 H          0.8356785062       -0.2444477665        1.4126516150
 H          1.9495194645        0.9730557091        0.8141371135
 H          0.8969201830       -1.3700978919       -0.6871197112
 H          2.4536175760       -1.1517037257       -0.1652928550
 H          1.8504898616       -0.1918966036       -1.3770113546
  15
        -18.17739979
 O         -1.2825854991       -0.8549948482        0.3920378795
 C         -1.2335874927        0.3165166484       -0.3977598373
 C         -0.0616694964        1.2052278943        0.0258435886
 C          1.1310651429        0.3729281933        0.4865063211
 N          1.4664807186       -0.7326856629       -0.4519910085
 H         -2.1188526568       -1.3337251374        0.3288195714
 H         -2.1880953292        0.8563601093       -0.3185915430
 H         -1.1238911013       -0.0019523767       -1.4428759760
 H         -0.3781296072        1.8623510175        0.8453948152
 H          0.2271440822        1.8708065800       -0.7961589405
 H          0.8934572895       -0.0771852861        1.4600554146
 H          2.0123169912        1.0078091629        0.6448330650
 H          1.6683716845       -0.3685896935       -1.3895358703
 H          0.6646716086       -1.3748350873       -0.5108889376
 H          2.2798571396       -1.2653287846       -0.1285322502
  15
        -18.17666784
 O         -1.8912772406       -0.7698055792       -0.0869662996
 C         -1.4510257738        0.5456104714        0.1880035274
 C         -0.0097541279        0.7758244669       -0.2535273048
 C          0.9282498283       -0.2449661418        0.3766107577
 N          2.3308917555       -0.1665768935       -0.1351614516
 H         -2.1767243565       -0.8987032085       -1.0019868993
 H         -1.5380297822        0.6547873289        1.2776156126
 H         -2.1494971290        1.2681519672       -0.2566318117
 H          0.3147187670        1.7917295233       -0.0024564931
 H          0.0536640009        0.7025305633       -1.3435533669
 H          0.5306940639       -1.2509328305        0.1927398703
 H          0.9306881289       -0.1229666722        1.4665867161
 H          2.9295487397       -0.8627463473        0.3190267966
 H          2.7255480446        0.7593754557        0.0437752876
 H          2.3553973055       -0.3345552325       -1.1434649554
  15
        -18.17656945
 O         -1.8367712868       -0.7693369222       -0.1180144907
 C         -1.4452534369        0.5896965613       -0.1147813011
 C         -0.0199805760        0.7208296829        0.4106637740
 C          0.9344039898       -0.1675596825       -0.3740819621
 N          2.3130950665       -0.2224269288        0.2006501700
 H         -2.7505405241       -0.9114140733       -0.3952671027
 H         -2.1494655009        1.1619040935        0.5053390319
 H         -1.5120701937        0.9664651353       -1.1439846188
 H         -0.0055249297        0.4161997005        1.4623535696
 H          0.3158664333        1.7634948085        0.3868764494
 H          0.9854951771        0.1684060304       -1.4169453873
 H          0.5148851015       -1.1814101075       -0.4061242849
 H          2.7269130388        0.7135642575        0.2284778343
 H          2.9216671631       -0.8246298908       -0.3586145696
 H          2.2906145613       -0.5896500565        1.1547244493
  15
        -18.17615474
 O         -1.5406100051       -0.6997272323       -0.5230196329
 C         -1.2152616447        0.2078441538        0.5097188172
 C         -0.0610903293        1.1048301314        0.0768411592
 C          1.0788080450        0.2973471631       -0.5331992548
 N          1.7345745735       -0.6379666833        0.4271956503
 H         -2.3144008328       -1.2461463542       -0.3352125801
 H         -0.9456084855       -0.3721349212        1.4013888856
 H         -2.1054133755        0.8032221573        0.7568342778
 H          0.3015084697        1.7044415744        0.9189226136
 H         -0.4355788986        1.8178727288       -0.6680973126
 H          1.8392380691        0.9696198003       -0.9516321850
 H          0.6839853685       -0.2871586377       -1.3751343944
 H          2.0834834873       -0.1312932277        1.2475298689
 H          2.5253245972       -1.1202128611       -0.0096696602
 H          1.0719661819       -1.3513700896        0.7448882984
  15
        -18.17516148
 O         -2.3170885874       -0.3409495252       -0.1614290584
 C         -1.0300234359       -0.2329661061        0.4123440677
 C         -0.0796660770        0.6421166849       -0.3987661663
 C          1.3486198301        0.6800126499        0.1474933950
 N          2.0887108580       -0.6112820934        0.0015935887
 H         -2.8180657362        0.4855590751       -0.1429275640
 H         -0.6579194578       -1.2634830025        0.4597148661
 H         -1.1298107514        0.1159252938        1.4489668012
 H         -0.4882889737        1.6575377170       -0.4490105070
 H         -0.0711551959        0.2819609262       -1.4330628888
 H          1.3335872096        0.9678915953        1.2057078153
 H          1.9214091131        1.4635685262       -0.3658765854
 H          3.0555852787       -0.5192024992        0.3303965831
 H          2.1146908973       -0.9041094731       -0.9787537954
 H          1.6474869441       -1.3578843013        0.5457598678
  15
        -18.17504660
 O         -2.4620729843       -0.3350153483        0.1750329222
 C         -1.3222748414        0.4014837700       -0.2196375382
 C         -0.0096844199       -0.3069525147        0.1049514780
 C          1.2288089006        0.5308517670       -0.2001200249
 N          2.5055551408       -0.1728976299        0.1311140119
 H         -2.5990806423       -1.1404062511       -0.3420770528
 H         -1.3921947399        1.3511358880        0.3279752801
 H         -1.4059607191        0.6465530035       -1.2867720842
 H          0.0425791466       -1.2515721234       -0.4440206444
 H         -0.0177691818       -0.5870872774        1.1635318378
 H          1.1856015665        1.4749148933        0.3565993139
 H          1.2374241010        0.8090129133       -1.2610327880
 H          2.5386299501       -0.4098229534        1.1268922873
 H          3.3145661914        0.4144523269       -0.0839609744
 H          2.5888824670       -1.0390046926       -0.4061881341
