  15
  -18.074271490000001       0.17181037698419138      !gc
 O         -1.2650831490        0.9572515536        0.0272212934
 C         -1.3297109088       -0.4406759101       -0.1567684262
 C         -0.0592118056       -1.1294009315        0.3322725756
 C          1.1970573675       -0.5587493370       -0.3195861163
 N          1.4774666698        0.8379010994        0.1116906651
 H         -2.1170910022        1.3980758646       -0.1631631977
 H         -1.4839933250       -0.6279688572       -1.2286124289
 H         -2.2128323269       -0.8208804896        0.3786499558
 H         -0.1263212206       -2.2118568746        0.1609176242
 H          0.0163456616       -0.9975533936        1.4182147630
 H          1.0880751278       -0.5841371262       -1.4119816136
 H          2.0722015198       -1.1831581431       -0.0902507677
 H          0.6287433657        1.4137124108       -0.0210883374
 H          2.2494119915        1.2649697255       -0.4212795702
 H          1.7215884083        0.8780670442        1.1113314468
  15
  -18.074249680000001       0.16789053334087009      !md2
 O         -1.2648671566        0.9571834655       -0.0088952900
 C         -1.3262515256       -0.4396212006        0.1844410143
 C         -0.0655349758       -1.1313624093       -0.3250547402
 C          1.2030046149       -0.5573754876        0.2994351916
 N          1.4742709336        0.8374851235       -0.1433084481
 H         -2.1133327359        1.3992382035        0.1940737117
 H         -2.2194632076       -0.8225929124       -0.3316004806
 H         -1.4599693594       -0.6207229919        1.2602677017
 H         -0.0108603827       -1.0055252682       -1.4127445107
 H         -0.1294615544       -2.2131078067       -0.1466425586
 H          2.0737104880       -1.1823810449        0.0550971195
 H          1.1158893102       -0.5784633730        1.3938298686
 H          0.6304938606        1.4158807442        0.0093392399
 H          1.6920512055        0.8737625713       -1.1490188735
 H          2.2613076301        1.2644775132        0.3674951410
  15
  -18.074234579999999       0.16522917302583273      !md6
 O         -1.2645367893        0.9572543216        0.0272868490
 C         -1.3296048356       -0.4406120355       -0.1568652464
 C         -0.0593008211       -1.1295820695        0.3321929281
 C          1.1969794641       -0.5588111906       -0.3194700899
 N          1.4768369100        0.8380599533        0.1115099091
 H         -2.1162919196        1.3985745822       -0.1630118196
 H         -1.4838735125       -0.6276727535       -1.2287382857
 H         -2.2128941120       -0.8206769383        0.3783610609
 H         -0.1264644720       -2.2120114429        0.1607139423
 H          0.0161627757       -0.9977685907        1.4181479581
 H          1.0884776614       -0.5848951558       -1.4118908597
 H          2.0722161575       -1.1827901270       -0.0891595111
 H          1.7167314315        0.8787780812        1.1135788532
 H          0.6306695029        1.4140575754       -0.0250748247
 H          2.2521985826        1.2635579245       -0.4179970477
  15
  -18.074229970000001       0.16442510198597132      !md7
 O         -1.2644873692        0.9572649222        0.0277631498
 C         -1.3294618132       -0.4404831047       -0.1572584864
 C         -0.0593868545       -1.1296481493        0.3322031474
 C          1.1971806665       -0.5590333273       -0.3190279785
 N          1.4765102216        0.8381551496        0.1111045522
 H         -2.1166056335        1.3983698931       -0.1614726868
 H         -1.4830571841       -0.6269568290       -1.2293155279
 H         -2.2130385570       -0.8208440720        0.3772746386
 H         -0.1266537467       -2.2120484376        0.1606694730
 H          0.0157081154       -0.9979371230        1.4181860808
 H          1.0894504010       -0.5859625725       -1.4115123088
 H          2.0723730790       -1.1826948307       -0.0878794205
 H          2.2539549687        1.2635011994       -0.4184164701
 H          1.7147644543        0.8797051998        1.1119776200
 H          0.6307148356        1.4144277043       -0.0272136934
  15
  -18.074227029999999       0.16391435513156355      !gc
 O         -1.2646405126        0.9571788616       -0.0089247176
 C         -1.3262537519       -0.4395973047        0.1844710957
 C         -0.0655709451       -1.1314427539       -0.3250519530
 C          1.2029472821       -0.5573754174        0.2994120145
 N          1.4739732311        0.8375196643       -0.1433016157
 H         -2.1131436304        1.3994131953        0.1934776239
 H         -2.2195405541       -0.8226902154       -0.3313027179
 H         -1.4596635278       -0.6204346868        1.2603761634
 H         -0.0109343880       -1.0056112196       -1.4127306926
 H         -0.1295322278       -2.2131413207       -0.1464087817
 H          2.0737271751       -1.1822538328        0.0550341658
 H          1.1158174054       -0.5784174669        1.3938121624
 H          2.2619628207        1.2653571743        0.3682785234
 H          0.6313621027        1.4148346890        0.0088305407
 H          1.6919878762        0.8737742420       -1.1490139373
  15
  -18.074225580000000       0.16366304066595760      !md3
 O         -1.2647334000        0.9571291402       -0.0082347430
 C         -1.3265990868       -0.4398657694        0.1836905556
 C         -0.0653838244       -1.1312664135       -0.3250870096
 C          1.2024969485       -0.5568869253        0.3004071884
 N          1.4746216763        0.8372825054       -0.1439971199
 H         -2.1130336187        1.3993585046        0.1950024144
 H         -2.2192955760       -0.8220815892       -0.3337611271
 H         -1.4613953904       -0.6219757904        1.2592038147
 H         -0.0098586727       -1.0053166575       -1.4127056654
 H         -0.1292057395       -2.2130115189       -0.1466796262
 H          2.0733977751       -1.1824347602        0.0581789116
 H          1.1138233444       -0.5764302993        1.3947138617
 H          1.6955311073        0.8719774532       -1.1506470657
 H          2.2601618605        1.2652331593        0.3681480213
 H          0.6316330443        1.4148736551        0.0054722229
  15
  -18.069178369999999        7.8417591549189238E-004 !md1
 O         -1.2530065085        0.9565727279        0.0959213168
 C         -1.3039779833       -0.4190315377       -0.2127416967
 C         -0.0778621419       -1.1481935085        0.3235480623
 C          1.2260214639       -0.5972180738       -0.2482294846
 N          1.4322286305        0.8651161646        0.0456167073
 H         -2.0779164268        1.4239873377       -0.1442879058
 H         -1.3691853053       -0.5188576347       -1.3050713786
 H         -2.2275609851       -0.8343744639        0.2182601584
 H         -0.1589931793       -2.2254960329        0.1278857001
 H         -0.0607960716       -1.0390205526        1.4148198591
 H          1.2487408880       -0.7569656975       -1.3349597665
 H          2.0788250234       -1.1704562611        0.1438901781
 H          0.6694418034        1.2192757963        0.6503859750
 H          1.4135411915        1.4356822971       -0.8125704657
 H          2.3274326923        1.0525076107        0.5227132584
  15
  -18.069160839999999        7.6976342056097821E-004 !gc
 O         -1.2545679761        0.9565404100       -0.0645324013
 C         -1.2981005577       -0.4186764840        0.2471272987
 C         -0.0862232999       -1.1491432547       -0.3189872083
 C          1.2319317448       -0.5965531472        0.2173747533
 N          1.4303163729        0.8651363524       -0.0848583041
 H         -2.0750717535        1.4236720649        0.1908531119
 H         -2.2324291281       -0.8347038013       -0.1588536010
 H         -1.3351819077       -0.5163625921        1.3410734100
 H         -0.0974062892       -1.0432690492       -1.4104260690
 H         -0.1621018492       -2.2261260193       -0.1179583576
 H          2.0744221633       -1.1707365071       -0.1952274729
 H          1.2827502477       -0.7537481603        1.3035355535
 H          0.6538038994        1.2172901142       -0.6729918058
 H          2.3142096074        1.0518353069       -0.5826508562
 H          1.4310621626        1.4378265383        0.7722221570
  15
  -18.069139350000000        7.5245606871356000E-004 !gc
 O         -1.2542465690        0.9565559741       -0.0641650643
 C         -1.2983370567       -0.4188253089        0.2466538310
 C         -0.0861819676       -1.1492213238       -0.3189515763
 C          1.2316727208       -0.5963469069        0.2178363200
 N          1.4302395438        0.8651376031       -0.0852520492
 H         -2.0743602194        1.4239485449        0.1919978906
 H         -2.2324493309       -0.8343376855       -0.1603496481
 H         -1.3363076878       -0.5172153028        1.3405081126
 H         -0.0969410899       -1.0434896060       -1.4104080115
 H         -0.1619944863       -2.2261860957       -0.1178057638
 H          2.0744131765       -1.1707747779       -0.1939054336
 H          1.2818591419       -0.7528440426        1.3041264522
 H          2.3154024548        1.0518599012       -0.5839853546
 H          1.4309398157        1.4382958428        0.7714374042
 H          0.6548735745        1.2164027966       -0.6726816405
  15
  -18.067183780000001        9.5008705886388291E-005 !mtd1
 O         -1.1954947662        0.9147700386        0.2807369463
 C         -1.3370203369       -0.3905697143       -0.2392818602
 C         -0.0393253206       -1.2163041548       -0.0902380516
 C          1.1146831068       -0.3933052760        0.4751544165
 N          1.4699150503        0.7677228719       -0.3824285093
 H         -2.0469017752        1.3941608550        0.3292759725
 H         -1.6292554543       -0.2894406000       -1.2951629486
 H         -2.1767502646       -0.8756705967        0.2819714757
 H          0.2567912617       -1.6372086334       -1.0595342301
 H         -0.2194511395       -2.0863436055        0.5566642367
 H          2.0047264719       -1.0209354598        0.6240320687
 H          0.8327522627       -0.0175279888        1.4688184610
 H          0.6498134718        1.3925975655       -0.4770143870
 H          1.7537756878        0.4666560648       -1.3255983597
 H          2.2426895012        1.3195264737        0.0192014132
  15
  -18.067154840000001        9.2143244314884691E-005 !gc
 O         -1.1980281325        0.8957913211       -0.3285366991
 C         -1.3349345922       -0.3744496568        0.2731605572
 C         -0.0385485636       -1.2083901318        0.1650753950
 C          1.1114174969       -0.4221344553       -0.4579073123
 N          1.4725014540        0.7894782408        0.3239012511
 H         -2.0501705222        1.3707789922       -0.4014198780
 H         -2.1789763160       -0.8909675869       -0.2091811876
 H         -1.6181723602       -0.2071639434        1.3232655940
 H         -0.2236352037       -2.1161452309       -0.4258178165
 H          0.2645985596       -1.5700096670        1.1561650669
 H          0.8225393455       -0.1082138256       -1.4708963903
 H          2.0004776834       -1.0580111133       -0.5736848662
 H          2.2437811352        1.3158367737       -0.1166730274
 H          1.7623352604        0.5471119239        1.2820422267
 H          0.6544878388        1.4186758361        0.3845831694
  15
  -18.066917010000001        7.1641455256462385E-005 !mtd1
 O         -1.2923145738        0.8789924777        0.3839196567
 C         -1.2213446346       -0.2882737312       -0.4078976944
 C         -0.0802109299       -1.2047198221        0.0319720412
 C          1.1562539354       -0.4056802749        0.4480379027
 N          1.4432170559        0.7425939703       -0.4533461219
 H         -1.8863487789        0.7805983844        1.1552495130
 H         -1.0568113570        0.0698949946       -1.4339732787
 H         -2.1980770472       -0.7960721308       -0.4174020924
 H          0.1702898862       -1.9029822524       -0.7767406763
 H         -0.4099923517       -1.8320730142        0.8704374496
 H          2.0388510785       -1.0576396090        0.5133907467
 H          1.0054139281       -0.0041939575        1.4601564681
 H          1.5967342796        0.4309292438       -1.4243411375
 H          2.2824393987        1.2618156879       -0.1557872952
 H          0.6469714687        1.4030594314       -0.4445676881
  15
  -18.066915760000001        7.1546754629576000E-005 !md4
 O         -1.2930171742        0.8788627908        0.3840443402
 C         -1.2211534808       -0.2879880009       -0.4081991861
 C         -0.0804211048       -1.2045623597        0.0322994486
 C          1.1567100005       -0.4060336640        0.4476188753
 N          1.4434834955        0.7426598832       -0.4533177496
 H         -1.8855147348        0.7788174305        1.1563254249
 H         -1.0556221062        0.0706599267       -1.4339387061
 H         -2.1978351360       -0.7958525809       -0.4188266924
 H          0.1694847852       -1.9036743092       -0.7758657311
 H         -0.4104925447       -1.8310186636        0.8713170345
 H          2.0391173557       -1.0583618608        0.5119323254
 H          1.0070198842       -0.0050278732        1.4601015348
 H          0.6458570889        1.4039289378       -0.4441742831
 H          1.5972553362        0.4318142259       -1.4229077423
 H          2.2824427738        1.2621240330       -0.1552300120
  15
  -18.066914550000000        7.1455203661610945E-005 !mtd4
 O         -1.3025116633        0.8495895770       -0.4168210657
 C         -1.2110702726       -0.2564651873        0.4565092176
 C         -0.0801177624       -1.2035756164        0.0574004956
 C          1.1461641397       -0.4383658393       -0.4438823121
 N          1.4532536724        0.7723455342        0.3643660531
 H         -1.9122177493        0.6936985311       -1.1661176939
 H         -2.1866270107       -0.7613378179        0.5270032305
 H         -1.0219100685        0.1759793998        1.4493530868
 H         -0.4290377685       -1.8891387494       -0.7256103088
 H          0.1893350435       -1.8422206890        0.9084993985
 H          0.9720708322       -0.1115604011       -1.4789221140
 H          2.0272903045       -1.0944210515       -0.4817047995
 H          0.6549449517        1.4317590013        0.3264867117
 H          2.2842575711        1.2682706122        0.0095218890
 H          1.6304452393        0.5324105114        1.3500359390
  15
  -18.066906090000000        7.0818368049441020E-005 !mtd12
 O         -1.3024628178        0.8496950051       -0.4167123744
 C         -1.2112346045       -0.2565666700        0.4563236519
 C         -0.0801065638       -1.2035870986        0.0574485729
 C          1.1461589098       -0.4383807278       -0.4438370884
 N          1.4532437201        0.7724192569        0.3642783506
 H         -1.9120953187        0.6940693606       -1.1661257906
 H         -2.1868219142       -0.7614403502        0.5264008657
 H         -1.0223773026        0.1756566090        1.4493294282
 H         -0.4289173582       -1.8893048263       -0.7254595228
 H          0.1893837735       -1.8420985605        0.9086148384
 H          0.9720361363       -0.1116933548       -1.4789141858
 H          2.0273201761       -1.0943836417       -0.4816255609
 H          1.6311004032        0.5323368549        1.3513285331
 H          0.6561017943        1.4306682648        0.3265959215
 H          2.2840710775        1.2684545181        0.0089937484
  15
  -18.066904610000002        7.0707544199428751E-005 !gc
 O         -1.2928883226        0.8788526083        0.3840013244
 C         -1.2214587876       -0.2882914930       -0.4080593524
 C         -0.0802612787       -1.2045197428        0.0320232447
 C          1.1563580845       -0.4056434448        0.4480368588
 N          1.4438568032        0.7424607344       -0.4534029714
 H         -1.8889227600        0.7808235201        1.1538227806
 H         -1.0566385420        0.0701227821       -1.4340088825
 H         -2.1979606816       -0.7965267905       -0.4180641392
 H          0.1701816858       -1.9029836415       -0.7765416720
 H         -0.4101104668       -1.8316663533        0.8706255244
 H          2.0387823544       -1.0578184853        0.5135630272
 H          1.0055322863       -0.0040324334        1.4601147569
 H          2.2832455286        1.2633997707       -0.1539897762
 H          0.6472151084        1.4023437127       -0.4456006908
 H          1.5990823796        0.4311350005       -1.4226765711
  15
  -18.066903109999998        7.0595399687995168E-005 !mtd9
 O         -1.3024305337        0.8497288315       -0.4166640952
 C         -1.2109391345       -0.2564262902        0.4565729028
 C         -0.0802699354       -1.2036985506        0.0570636912
 C          1.1465016717       -0.4387417121       -0.4435410941
 N          1.4528439600        0.7725683390        0.3641171193
 H         -1.9139632411        0.6948130032       -1.1646676871
 H         -2.1865304519       -0.7612139802        0.5271914367
 H         -1.0214648985        0.1757836225        1.4494562325
 H         -0.4293784680       -1.8886084802       -0.7264343623
 H          0.1887167518       -1.8430549711        0.9077776751
 H          0.9735711126       -0.1127476348       -1.4790319184
 H          2.0277351981       -1.0947352357       -0.4799365955
 H          2.2853452749        1.2690778910        0.0091228232
 H          1.6293134120        0.5332690412        1.3499992746
 H          0.6558408903        1.4310299462        0.3252245998
  15
  -18.065906519999999        2.4590952360792797E-005 !mtd2
 O         -1.2764440489        0.9274397378        0.3256247269
 C         -1.2059179708       -0.2917557326       -0.3839231668
 C         -0.1193573318       -1.2087516930        0.1660203871
 C          1.2890103528       -0.5719641002        0.1712698240
 N          1.3373066154        0.8416269459       -0.2989925035
 H         -1.9119822370        0.8982516435        1.0689681422
 H         -0.9969648533       -0.0256870811       -1.4286892897
 H         -2.1976580666       -0.7697814827       -0.3835374482
 H         -0.1101360384       -2.1521437424       -0.3962843374
 H         -0.3983027652       -1.4900959815        1.1898394398
 H          1.9814669987       -1.1636100790       -0.4453924368
 H          1.7139691291       -0.6108442493        1.1852050156
 H          2.2674722104        1.2659864888       -0.1549397350
 H          0.6426157999        1.4137791930        0.2091873626
 H          1.1195155159        0.9132999824       -1.3025306649
  15
  -18.065755930000002        2.0968577841553757E-005 !gc
 O         -1.2766878825        0.8368204131       -0.4283389967
 C         -1.2373736336       -0.2825394316        0.4309705561
 C         -0.0681652937       -1.2052720804        0.0708429472
 C          1.1258317433       -0.4209426075       -0.4693342342
 N          1.4740278586        0.7591087079        0.3644748932
 H         -2.1273589720        1.3185967029       -0.3864935029
 H         -2.1985289635       -0.8159818160        0.3774784690
 H         -1.1358105164        0.1032894126        1.4552750889
 H         -0.3932484295       -1.9299830856       -0.6877371496
 H          0.2270755067       -1.8022848633        0.9431208288
 H          0.8861992986       -0.0576215158       -1.4794289314
 H          2.0045206370       -1.0720444331       -0.5792432684
 H          2.2891780042        1.2684486518       -0.0125335517
 H          1.6951735773        0.4846741149        1.3322494114
 H          0.6760433211        1.4163042643        0.3846367009
  15
  -18.065747840000000        2.0789836295201435E-005 !mtd5
 O         -1.2701181844        0.8677157595        0.3862362935
 C         -1.2437323214       -0.3130138029       -0.3871762631
 C         -0.0689054923       -1.2071050927        0.0228572803
 C          1.1348401824       -0.3854677756        0.4796164431
 N          1.4665291608        0.7284337699       -0.4467889668
 H         -2.1222482793        1.3446590164        0.3232195916
 H         -1.1581312564       -0.0053632318       -1.4388910815
 H         -2.2040191105       -0.8401203314       -0.2790564436
 H          0.2105997681       -1.8702881865       -0.8054986020
 H         -0.3811046389       -1.8705325337        0.8409838186
 H          2.0157848344       -1.0273298639        0.6214777591
 H          0.9144705007        0.0528521321        1.4639894121
 H          1.6712661493        0.3816945947       -1.3964341300
 H          2.2863017383        1.2636658781       -0.1237838945
 H          0.6674892958        1.3822683304       -0.5021149018
  15
  -18.065729409999999        2.0388309986056140E-005 !mtd2
 O         -1.2788944961        0.8359090738       -0.4293508951
 C         -1.2342057705       -0.2800555337        0.4339935880
 C         -0.0693804238       -1.2052627267        0.0679897962
 C          1.1277116593       -0.4226417563       -0.4682990155
 N          1.4729386495        0.7591907344        0.3642372890
 H         -2.1293109750        1.3179627237       -0.3845181070
 H         -2.1964101384       -0.8125265470        0.3900448793
 H         -1.1238584164        0.1090872590        1.4561192732
 H         -0.3982102599       -1.9237582172       -0.6949275457
 H          0.2231613258       -1.8089112994        0.9366747731
 H          0.8930266624       -0.0611426142       -1.4802391505
 H          2.0063374665       -1.0746428894       -0.5732068434
 H          0.6742617822        1.4181089086        0.3791344492
 H          2.2888732299        1.2658004892       -0.0104977127
 H          1.6898640761        0.4872830923        1.3337439153
  15
  -18.065726959999999        2.0335520175542290E-005 !md6
 O         -1.2713293419        0.8670921446        0.3874737516
 C         -1.2419419692       -0.3115726003       -0.3888933465
 C         -0.0697252846       -1.2069536365        0.0246908306
 C          1.1362377095       -0.3867227083        0.4785375721
 N          1.4656595470        0.7285183805       -0.4470917201
 H         -2.1225253511        1.3453034751        0.3211311070
 H         -1.1511440938       -0.0016042412       -1.4394576802
 H         -2.2028919394       -0.8385815769       -0.2863938846
 H          0.2075550401       -1.8744831999       -0.8009144274
 H         -0.3840457925       -1.8658367691        0.8456663418
 H          2.0171891928       -1.0294211977        0.6165342644
 H          0.9196440175        0.0503587072        1.4643099645
 H          0.6664328941        1.3850423165       -0.4972497656
 H          1.6652135146        0.3840386603       -1.3969924418
 H          2.2880722221        1.2613884295       -0.1267091851
  15
  -18.065719690000002        2.0179677685969747E-005 !mtd9
 O         -1.2793455549        0.8359647632       -0.4293402154
 C         -1.2343721669       -0.2800867830        0.4339776457
 C         -0.0694150010       -1.2051266712        0.0679381709
 C          1.1278007415       -0.4225981529       -0.4682639592
 N          1.4733896139        0.7591817850        0.3642178116
 H         -2.1305559243        1.3166970009       -0.3856544074
 H         -2.1964453408       -0.8128247918        0.3904445704
 H         -1.1238689221        0.1092577716        1.4560154714
 H         -0.3981909898       -1.9236785184       -0.6949502455
 H          0.2231696234       -1.8087434148        0.9366360337
 H          0.8933448801       -0.0612162519       -1.4803034162
 H          2.0063803846       -1.0746804101       -0.5730775024
 H          1.6911399333        0.4869599665        1.3350135939
 H          0.6758831941        1.4169380805        0.3795467993
 H          2.2891044006        1.2660232529       -0.0108543852
  15
  -18.065704310000001        1.9853910816304612E-005 !md8
 O         -1.2716023898        0.8669331755        0.3876010332
 C         -1.2419360571       -0.3114822834       -0.3890264773
 C         -0.0697184184       -1.2068571243        0.0247100733
 C          1.1360529752       -0.3865095584        0.4787641751
 N          1.4658992502        0.7283074134       -0.4472312754
 H         -2.1220328987        1.3461787122        0.3194783507
 H         -1.1510093390       -0.0015254136       -1.4395738903
 H         -2.2028336714       -0.8385973277       -0.2865643876
 H          0.2077735010       -1.8742832668       -0.8009064371
 H         -0.3841258103       -1.8658342584        0.8455663725
 H          2.0168815496       -1.0291942030        0.6175256214
 H          0.9189641213        0.0510331808        1.4642317931
 H          2.2895678191        1.2619020908       -0.1265634800
 H          0.6680826383        1.3839017631       -0.4976475196
 H          1.6652841967        0.3833121011       -1.3970464168
