  18
  -22.553338260000000       0.16397374271788998      !mtd6
 N          2.7346714311       -0.0041004020       -0.6507803161
 C          1.9132824071        0.0059809959        0.5991926578
 C          0.4428762011        0.0029358979        0.3225225694
 C         -0.2533129959       -1.2008691811        0.1752335389
 C         -1.6168345687       -1.2042079807       -0.1003061471
 C         -2.3024477959       -0.0032109612       -0.2387896859
 C         -1.6214591570        1.2008513836       -0.1041989999
 C         -0.2579251256        1.2036020449        0.1713084974
 H          2.5312833411        0.8207468437       -1.2335950403
 H          2.5335846949       -0.8397692903       -1.2189469881
 H          3.7454199043       -0.0008762742       -0.4456007221
 H          2.1721702926        0.8844634579        1.2012595279
 H          2.1728659491       -0.8620230392        1.2159727245
 H          0.2744105284       -2.1337604346        0.2826627528
 H         -2.1438255351       -2.1398150604       -0.2042145437
 H         -3.3608431257       -0.0055864696       -0.4495852434
 H         -2.1520556201        2.1341168135       -0.2110172124
 H          0.2660649912        2.1389225462        0.2759439004
  18
  -22.553338010000001       0.16393036941325764      !mtd1
 N          2.7349005007        0.0004858027       -0.6506722114
 C          1.9132494039        0.0032772830        0.5991950260
 C          0.4429034000        0.0013385057        0.3222343248
 C         -0.2545392600       -1.2019115089        0.1762005705
 C         -1.6181303792       -1.2042359261       -0.0990472092
 C         -2.3025188581       -0.0026691021       -0.2386813527
 C         -1.6202951198        1.2008481555       -0.1053858404
 C         -0.2567506157        1.2025490548        0.1700815694
 H          2.5330997969       -0.8312635361       -1.2242356600
 H          3.7456265370        0.0012301907       -0.4453020446
 H          2.5326069634        0.8294421254       -1.2282308358
 H          2.1716573612        0.8784766602        1.2063011182
 H          2.1730568814       -0.8681309436        1.2111423991
 H          0.2721036928       -2.1352848175        0.2847513261
 H         -2.1461745562       -2.1394234968       -0.2014662229
 H         -3.3609839722       -0.0042186104       -0.4491619476
 H         -2.1500138775        2.1345471525       -0.2127138347
 H          0.2680163106        2.1374497678        0.2746462661
  18
  -22.553337559999999       0.16385232637392930      !mtd1
 N          2.7131354444        0.0086233039        0.7351342125
 C          1.9309103637       -0.0022069756       -0.5397195881
 C          0.4526559300       -0.0019657554       -0.3087763399
 C         -0.2502350178       -1.2039691845       -0.1794176012
 C         -1.6216017406       -1.2038247644        0.0539695847
 C         -2.3086642097       -0.0010495023        0.1676102541
 C         -1.6214199373        1.2012794682        0.0503344102
 C         -0.2500419527        1.2005005817       -0.1829925460
 H          2.4934478171       -0.8170616932        1.3108297571
 H          2.4927780671        0.8434763208        1.2973505224
 H          3.7297729723        0.0076252768        0.5613975678
 H          2.2099104417       -0.8798665703       -1.1339604072
 H          2.2078760245        0.8666575743       -1.1476934829
 H          0.2785494962       -2.1382593355       -0.2678022388
 H         -2.1534895751       -2.1380877847        0.1442403738
 H         -3.3731088527       -0.0007141824        0.3453995187
 H         -2.1531474874        2.1358789962        0.1379659766
 H          0.2789567925        2.1344134635       -0.2739936372
  18
  -22.553336460000001       0.16366171088008216      !mtd4
 N          2.7134020649       -0.0246511649        0.7345114908
 C          1.9308720704        0.0190888602       -0.5394412762
 C          0.4526496657        0.0108403935       -0.3083112637
 C         -0.2437583793       -1.1957802519       -0.1880658496
 C         -1.6151394241       -1.2048073754        0.0450852465
 C         -2.3087821210       -0.0066619210        0.1672785261
 C         -1.6280203157        1.2001878254        0.0590286734
 C         -0.2565574135        1.2086064676       -0.1737000666
 H          3.7299135784       -0.0167156149        0.5606836900
 H          2.4951468530       -0.8748975305        1.2740244916
 H          2.4919588580        0.7847466374        1.3323892060
 H          2.2085667709       -0.8330429371       -1.1703410864
 H          2.2089033339        0.9124963668       -1.1101870503
 H          0.2901807728       -2.1264361406       -0.2833991533
 H         -2.1419000022       -2.1425908476        0.1286103183
 H         -3.3732386394       -0.0134014696        0.3448688076
 H         -2.1648994967        2.1312297854        0.1529767530
 H          0.2672524860        2.1461157468       -0.2575559201
  18
  -22.553336210000001       0.16361842011215191      !mtd2
 N          2.7134194691       -0.0250999808        0.7344833654
 C          1.9308682551        0.0193768331       -0.5394300448
 C          0.4526480506        0.0110128953       -0.3082875028
 C         -0.2436723327       -1.1956694052       -0.1881628970
 C         -1.6150586622       -1.2048198759        0.0449551687
 C         -2.3087892488       -0.0067371753        0.1672651565
 C         -1.6281121245        1.2001724237        0.0591529538
 C         -0.2566498553        1.2087144441       -0.1735725095
 H          2.4919774424        0.7838898712        1.3327708874
 H          3.7300117900       -0.0170345370        0.5606330127
 H          2.4951986067       -0.8756563948        1.2735186274
 H          2.2085301164       -0.8323847406       -1.1708450582
 H          2.2089187718        0.9131184114       -1.1096413705
 H          0.2903337488       -2.1262751457       -0.2836094626
 H         -2.1417576244       -2.1426492430        0.1283531545
 H         -3.3732491406       -0.0135710523        0.3448316671
 H         -2.1650559825        2.1311662092        0.1532081017
 H          0.2670924304        2.1462719780       -0.2573108151
  18
  -22.553335929999999       0.16356994804611308      !mtd1
 N          2.7348016330        0.0174070857       -0.6505991668
 C          1.9132926800       -0.0063867626        0.5990707458
 C          0.4429001112       -0.0047881144        0.3223207493
 C         -0.2589907229       -1.2060099359        0.1805082746
 C         -1.6225879790       -1.2041321473       -0.0947058193
 C         -2.3025015146       -0.0005459045       -0.2387172935
 C         -1.6157968302        1.2008720771       -0.1096881953
 C         -0.2522776407        1.1983984877        0.1658827888
 H          3.7454667325        0.0157424018       -0.4453323642
 H          2.5310595110        0.8573352097       -1.2115240204
 H          2.5340543734       -0.8030719932       -1.2406264787
 H          2.1701660514        0.8566993315        1.2238669568
 H          2.1747353702       -0.8895440065        1.1931307273
 H          0.2641837740       -2.1409881464        0.2919872027
 H         -2.1541392183       -2.1376865516       -0.1938666173
 H         -3.3609524523        0.0010853605       -0.4492603844
 H         -2.1418921097        2.1361546095       -0.2208637920
 H          0.2762626081        2.1315982113        0.2663204616
  18
  -22.549938220000001        4.4897702033478686E-003 !mtd6
 N          2.7732748248       -0.7458779921        0.0231942710
 C          1.9329298836        0.4936366971        0.0405756040
 C          0.4516706565        0.2595442792        0.0182164066
 C         -0.1017029135       -1.0071285123       -0.1936023069
 C         -1.4806629539       -1.1909552656       -0.2216140053
 C         -2.3314718181       -0.1075635285       -0.0398244687
 C         -1.7994060803        1.1589400222        0.1686171270
 C         -0.4204814760        1.3398250520        0.1958973176
 H          2.6360729721       -1.2824337922       -0.8457665968
 H          2.5505356654       -1.3585553071        0.8213701247
 H          3.7775706209       -0.5193388591        0.0830920053
 H          2.2059259618        1.1215769290       -0.8155506978
 H          2.1841474715        1.0766873456        0.9343529093
 H          0.5464600369       -1.8531897180       -0.3368375372
 H         -1.8909522996       -2.1751998210       -0.3852626383
 H         -3.4011743818       -0.2489486506       -0.0615421980
 H         -2.4569351799        2.0029002848        0.3081227192
 H         -0.0138313362        2.3249975273        0.3538665257
  18
  -22.549912220000000        4.3679266901387884E-003 !mtd4
 N          2.7726040533        0.7497001225       -0.0062558421
 C          1.9335068804       -0.4886591576        0.0655369369
 C          0.4519485648       -0.2580830507        0.0289697702
 C         -0.4189154888       -1.3394699656        0.2061374694
 C         -1.7980450498       -1.1618366476        0.1695081163
 C         -2.3316847868        0.1025876207       -0.0472560809
 C         -1.4821409489        1.1872039335       -0.2276733508
 C         -0.1029735553        1.0066441317       -0.1903073942
 H          3.7774394362        0.5261023499        0.0541032486
 H          2.5563807151        1.3927225468        0.7695338853
 H          2.6273734547        1.2519690649       -0.8943063321
 H          2.1833042912       -1.0310447751        0.9849460543
 H          2.2091663775       -1.1536793109       -0.7612396260
 H         -0.0109310323       -2.3227943994        0.3720271047
 H         -2.4544902077       -2.0067124999        0.3087471909
 H         -3.4015459268        0.2413863454       -0.0761621631
 H         -1.8934783401        2.1700005657       -0.3973604104
 H          0.5441468116        1.8537691983       -0.3319289662
  18
  -22.549894850000001        4.2883738730619732E-003 !mtd1
 N          2.7742840924       -0.7432943839       -0.0247530279
 C          1.9323396825        0.4904773021        0.0826909369
 C          0.4513362517        0.2583045365        0.0359485588
 C         -0.1009378339       -1.0079374439       -0.1813563239
 C         -1.4796785325       -1.1903400099       -0.2252559760
 C         -2.3313646967       -0.1060786574       -0.0529794898
 C         -1.8004111774        1.1596782380        0.1626780432
 C         -0.4217130909        1.3390555896        0.2060183871
 H          3.7788890410       -0.5182429210        0.0341201422
 H          2.6239145847       -1.2240233362       -0.9238226413
 H          2.5657359463       -1.4058271247        0.7365805900
 H          2.2081703163        1.1801357328       -0.7236185979
 H          2.1791925812        1.0061181129        1.0181490361
 H          0.5479186846       -1.8548016351       -0.3163300433
 H         -1.8890778796       -2.1741744271       -0.3935350462
 H         -3.4008990453       -0.2463726774       -0.0868314598
 H         -2.4586773942        2.0040028799        0.2963749709
 H         -0.0158251404        2.3231864207        0.3722808582
  18
  -22.549885780000000        4.2474116900271929E-003 !mtd6
 N          2.7734994497        0.7454430561       -0.0498187107
 C          1.9328770512       -0.4843915808        0.1037387742
 C          0.4516144392       -0.2563104125        0.0453141282
 C         -0.4197057707       -1.3384967928        0.2150706037
 C         -1.7986012349       -1.1626935000        0.1638029306
 C         -2.3314981758        0.1009750915       -0.0591701776
 C         -1.4815392112        1.1867078225       -0.2306819893
 C         -0.1026096415        1.0078705952       -0.1788762047
 H          2.5708819707        1.4324120919        0.6910467674
 H          2.6157783885        1.1964771772       -0.9628889091
 H          3.7786638458        0.5225190562        0.0087912278
 H          2.1788799754       -0.9639189224        1.0584130595
 H          2.2109513552       -1.2036234222       -0.6755072152
 H         -0.0122166688       -2.3209199907        0.3873830768
 H         -2.4554883330       -2.0081665007        0.2970337038
 H         -3.4011800756        0.2384971037       -0.0991999610
 H         -1.8924338402        2.1689602520       -0.4044670781
 H          0.5448873337        1.8557885481       -0.3137331827
