25
 energy: -37.130905137699 gnorm: 0.000340758470 xtb: 6.5.1 (fef0646)
N            1.05278330613846       -0.12388501751600       -0.03370320645263
C            2.51284590787650       -0.28742059801217       -0.00434462876332
C            3.02027465899779       -0.08486575161785        1.39871997371381
C            3.38013965582925       -1.19722682443734        2.18300600511509
C            3.81707901230468       -1.03618885790172        3.46738050282580
C            3.10255276046153        1.17377573001169        1.93558846226475
C            3.54317057858641        1.37313728483051        3.25851878783366
C            3.91151240191514        0.24783461537950        4.04176707790681
C            4.35802180958314        0.45186730977083        5.36395591334155
C            4.43412557947200        1.71210809612606        5.88689481953945
C            4.06550780156465        2.82515876936558        5.11397631510918
C            3.63021664180225        2.66044834764060        3.82937036778850
Cl           0.22250211102152        2.66606053208421        0.31606322153214
H            0.67953274964623       -0.36588672349455       -0.94573754393056
H            0.63965097005745        1.36364803974518        0.19274706283789
H            0.61431059706241       -0.71174581256535        0.66816745506010
H            2.93474125484951        0.46918185990299       -0.67098037760949
H            2.81770697582763       -1.27901142959170       -0.36663817161896
H            3.31359112422731       -2.18797132166898        1.75446420513849
H            4.09630816203186       -1.89427681798121        4.06227745917740
H            2.81963779394366        2.03225427118828        1.34605415625680
H            4.63851549569612       -0.40802562095665        5.95600106067533
H            4.77744289460087        1.86180857148062        6.90022501031818
H            4.12946234655686        3.81305104669840        5.54621082426140
H            3.34173740994648        3.51138030151912        3.22983524767923
