  18
        -25.44907731
 N         -3.1494392625        1.6266898157       -0.4033148512
 C         -1.7591098147        1.9701461318       -0.6711745735
 C         -0.8888019246        1.9389751759        0.5823869988
 C         -0.8607677700        0.5741103894        1.2728595661
 C         -0.2350086428       -0.5226078982        0.4274890734
 I          1.7938607280       -0.1778487835       -0.1037637231
 Cl        -3.3986619489       -1.6792089836       -0.0773057526
 H         -3.5024495274        2.2127980614        0.3447923329
 H         -3.3110827848       -0.3528292829       -0.2147733611
 H         -3.7271950587        1.8287432448       -1.2138242575
 H         -1.7034650215        2.9610632234       -1.1419137237
 H         -1.3650412254        1.2695338288       -1.4173118706
 H         -1.2516135045        2.7001764857        1.2840650865
 H          0.1359544927        2.2391527341        0.3329995845
 H         -1.8827610551        0.2916543170        1.5586539949
 H         -0.3053776293        0.6501010165        2.2178486130
 H         -0.7746866660       -0.6601848617       -0.5105687144
 H         -0.2481361400       -1.4850858823        0.9442315634
