18
 energy: -25.454411360865 gnorm: 0.000466437946 xtb: 6.5.1 (fef0646)
N            1.24212185694183        0.24785281224980        0.33271832082665
C            2.69466702979117        0.19658175179433        0.17865671469006
C            3.10202055158456        0.85963771566196       -1.13450248636440
C            4.60828881147954        0.75281542481162       -1.36841808480874
C            4.98671370815670        1.39252108224233       -2.68865245835797
I            7.11740511611497        1.29456025359903       -3.03873080539945
Cl          -0.02247923788593       -1.05379869312694       -1.98293619273453
H            0.94555558890023       -0.23001756126080        1.17598651222287
H            0.56174499171551       -0.45575649409429       -0.90248424374992
H            0.91591168681622        1.20813304546747        0.37029542281074
H            2.98484524256762       -0.85637915229116        0.16159706841086
H            3.21771528123192        0.68166498902548        1.01536742790141
H            2.80803687796469        1.91200454042299       -1.11512390595731
H            2.56292643727160        0.37596873491681       -1.94963162916787
H            4.89999471554626       -0.29959714537295       -1.37115878480039
H            5.14191349447895        1.24464019192054       -0.55117776990762
H            4.72459595513784        2.44750447081596       -2.71184532252737
H            4.51618189218617        0.88382403321806       -3.52599978308714
