21
 energy: -46.929882772322 gnorm: 0.000814171952 xtb: 6.5.1 (fef0646)
N            0.92396506317292       -1.99117852913584       -1.85673070298135
C            2.40139248363413       -2.02754803359076       -1.88933183925506
C            2.96645191460548       -0.96021524473039       -0.94001421826668
C            4.46876520193271       -0.97060783357009       -0.95034842969171
C            5.19464024518276       -0.21119649251738       -1.86429218130002
F            4.52592638164814        0.53038228600113       -2.75693984947015
C            6.58391779098570       -0.19678193211959       -1.87621443108665
F            7.24553701535366        0.55349126680676       -2.76666086504537
C            7.28614045830728       -0.96619388152009       -0.95495624947498
F            8.62412786886945       -0.95768244143485       -0.95163197034123
C            6.58913432685183       -1.74443593075487       -0.03731032548740
F            7.25587067985027       -2.49137998500646        0.85214827837874
C            5.19960686606087       -1.73980631808544       -0.04896727368870
F            4.53695660629286       -2.49548270456703        0.83636421720172
H            0.53280445147836       -2.70088927467297       -2.48782120701935
H            0.57914980363127       -1.06863277381211       -2.15094135917103
H            0.58120931836902       -2.17666176926230       -0.90574255278912
H            2.74779695957801       -1.83529334656862       -2.90501434593955
H            2.74757954315162       -3.01389035058755       -1.57986687690200
H            2.63157581795533       -1.15265839949874        0.07921518248235
H            2.63302120308830        0.02920168862721       -1.25285300015247
