17
 energy: -17.172890921464 gnorm: 0.000298997240 xtb: 6.5.1 (fef0646)
N            0.92385860879895        0.08222546059742        0.11150314188031
C            2.41815611598926        0.04028201241861        0.07818183083407
C            2.91209908114668       -1.10354859849603       -0.81067238915789
C            2.41336072216060       -0.93596733990099       -2.24507260323023
C            4.43873782556913       -1.12121880944342       -0.77113035728616
H            0.57688729558883        0.88323553456336        0.65218699466906
H            0.55680175221952       -0.78447919663656        0.52518680296822
H            0.58283002857046        0.14847110476922       -0.85891791302110
H            2.78781300127159       -0.08018979001939        1.09709664658904
H            2.77876974525441        0.99301772763204       -0.31355921355965
H            2.54392415878229       -2.05305388486209       -0.40817313421758
H            2.67502397716469        0.04557958225317       -2.63373966759575
H            1.33850867250183       -1.08755113308471       -2.33997137885641
H            2.88961805747696       -1.67563875749218       -2.88160240672884
H            4.84429332200640       -0.20439669649898       -1.18991200401111
H            4.81679379978535       -1.95566194452036       -1.35293258362039
H            4.80178383571304       -1.22862527127914        0.24710823434442
