26
 energy: -41.512540472267 gnorm: 0.000562025679 xtb: 6.5.1 (fef0646)
N            1.06734509414819       -1.11018156729180        0.10147089963078
C            2.54001185759384       -1.17836849271465        0.06037819777177
C            3.04170956750086       -0.60316918627022       -1.26498348188281
C            4.52816912748206       -0.54119652733470       -1.29695470430963
C            5.33821240532137        0.54982508446526       -1.37096206524815
C            6.71040875306616        0.23340975377660       -1.36911239041559
C            6.95607114645845       -1.11125326168340       -1.28803137889598
C            8.21148161120876       -1.79082250810739       -1.26048692579406
C            8.44991883638059       -3.13730734167832       -1.17643648621701
C            9.82160889284237       -3.45673893680257       -1.17726021902701
C           10.61712136443531       -2.35964526971404       -1.26084883172925
S            9.70773277787662       -0.90027934560360       -1.34178928200782
S            5.46549894814380       -2.00263184711482       -1.21652586963504
Cl           0.31187784221241        1.81341470870691       -0.40799175598006
H            0.70260602225374       -1.41915287172039        1.00508128505585
H            0.65510950760870       -1.66952023777831       -0.64946816546956
H            0.76396281947437       -0.11367630001941       -0.04903151524479
H            2.87273470804924       -2.21183587242756        0.16708541973939
H            2.94200991293078       -0.58274364687289        0.87947843449628
H            2.63808316826934        0.40346859701001       -1.38740083864188
H            2.68961945947720       -1.22208584846678       -2.09222280019644
H            4.96154946471899        1.55556523216425       -1.42740516718565
H            7.49842153075521        0.96383384565574       -1.42524338329680
H            7.66083468435909       -3.86490554924235       -1.11722710096779
H           10.19919757790746       -4.46106226771954       -1.11811566621376
H           11.68664291952660       -2.30544034321773       -1.28180620833280
