27
 energy: -35.325296189826 gnorm: 0.000674693044 xtb: 6.5.1 (fef0646)
N            1.24937613513724       -0.77272398027939       -0.86225826644199
C            2.30584662253029       -0.06268409781470       -0.03056129453038
C            3.48002423057605       -1.00789049848223        0.15506950248889
C            2.66833680905217        1.21768499931328       -0.73621057955052
C            3.21771595899705        1.16957669993551       -2.03577882921865
C            3.55657772301090        2.32179978795516       -2.68509815725982
C            2.46682411541083        2.42973463861661       -0.12739940274339
C            2.80886954920925        3.63477464852578       -0.77211684716070
C            3.36495708930255        3.58097667059338       -2.07911837245478
C            3.70962838001680        4.78491187591905       -2.72589390339538
C            3.50963237329776        5.98736928509435       -2.10578962336004
C            2.95716212466426        6.04046458200937       -0.81563725087186
C            2.61369650031833        4.89051910074304       -0.16066026043614
H            1.03104067533249       -1.69831449806575       -0.47365703929287
H            1.62344734744683       -0.88501774307375       -1.81492007021427
H            0.39196193692667       -0.21062090365085       -0.91546719919023
H            1.85378555231647        0.16244892573926        0.93911292804372
H            3.92701020887450       -1.28249552380887       -0.79649892027878
H            3.18302984976631       -1.90956114462578        0.68570263131954
H            4.24496825172831       -0.51069234482192        0.74463224399068
H            3.39377004367863        0.21780438813652       -2.51946977980880
H            3.98260416150961        2.28226397932408       -3.67617020637070
H            2.05106106485506        2.47864940962600        0.86912701391691
H            4.13530915288841        4.73890585660659       -3.71706838822544
H            3.77609753997294        6.90665906205200       -2.60406618450562
H            2.80675620990878        6.99932599078875       -0.34409790419832
H            2.19080039327166        4.92677083364311        0.83238415974874
