  29
        -44.39727751
 N          3.1643428911       -1.8651398414       -0.0786082669
 C          2.8242548714       -1.4663780313       -1.4681852933
 C          1.7705760324       -0.3685650803       -1.4649963683
 O          0.5685530517       -0.8090630350       -0.8434150740
 C         -0.4154215244        0.1658482471       -0.7041668623
 C         -0.2904234533        1.4785918529       -1.1257621522
 C         -1.3159183443        2.4033915102       -0.9411663534
 C         -2.4852364121        2.0419610750       -0.3364462295
 C         -2.6786392247        0.7179373685        0.1104056817
 C         -3.8762782891        0.3049051352        0.7362714364
 C         -4.0347381607       -0.9840763340        1.1517280333
 C         -3.0110931785       -1.9188871363        0.9628815738
 C         -1.8424445603       -1.5488404867        0.3627688007
 C         -1.6431836371       -0.2277939496       -0.0754831427
 Cl         4.1982947198        1.0800495259        1.5188400070
 H          3.5333099331       -1.0532265279        0.4454905381
 H          3.8626895714       -2.6211126928       -0.0431478899
 H          2.3166848969       -2.1793609647        0.4111787259
 H          2.4432295112       -2.3341342837       -2.0176287685
 H          3.7262629965       -1.1385508899       -1.9984580115
 H          1.5307531723       -0.0429791504       -2.4838250486
 H          2.1420821784        0.4986878809       -0.9088768610
 H          0.6140358126        1.7995587757       -1.6096213985
 H         -1.1821091756        3.4177288196       -1.2808530308
 H         -3.2729111284        2.7623260101       -0.1960379110
 H         -4.6643967104        1.0243082774        0.8803246373
 H         -4.9529663965       -1.2881179930        1.6276200900
 H         -3.1490533928       -2.9356720689        1.2927984364
 H         -1.0536906378       -2.2649741797        0.2101038044
