27
 energy: -36.059407383985 gnorm: 0.000418381260 xtb: 6.5.1 (fef0646)
N            3.39041120906444        0.19804193661398       -1.17430726085369
C            2.52187266727869        0.05411785236386        0.01799930144359
C            2.91127426095572        1.03282724619918        1.12819561293421
C            2.14564429179589        0.67345829798060        2.40457047831721
C            2.51513086575833        1.61527998142103        3.54644430093311
C            2.20442529027244        3.07178649052976        3.16026753671062
C            2.64398197028109        3.95382918462529        4.30693739582046
O            1.71457943470846        4.29579167546576        5.19978319182814
O            3.78792293965659        4.31876365535269        4.46250870922805
C            2.96342985962974        3.43513144030827        1.88169832583903
C            2.60534045148959        2.48325310594369        0.74312910438128
H            3.12566242757610       -0.48254513590245       -1.89518070747044
H            4.37293709084827        0.04398614077405       -0.91866389200325
H            3.30099180118100        1.14174081665409       -1.56737528374963
H            2.60785340536886       -0.96492602503560        0.39471018695075
H            1.48581284337505        0.22832290440578       -0.27268642479999
H            3.98032326582894        0.94328800306883        1.34243645803977
H            2.37610428932335       -0.34822710113194        2.70762450370039
H            1.07209040709731        0.73709313095713        2.22008050065721
H            3.58107162769054        1.53735907703032        3.77164280941845
H            1.96763616681577        1.34036214371274        4.44960788519217
H            1.12867618923748        3.18098122201011        2.99443238010743
H            0.81894743330574        3.97570715201081        4.98696346445392
H            4.03335722441075        3.39660805664769        2.09593183823939
H            2.72641594397648        4.46323138601828        1.60048698938622
H            3.17720216218990        2.79305659908549       -0.13113212598247
H            1.54245448088334        2.58699076289070        0.51734472127816
