30
 energy: -34.809036422121 gnorm: 0.000418293849 xtb: 6.5.1 (fef0646)
N            0.87762844928129        0.57668157669722        2.12157517984945
C            2.31007444111674        0.51377242981161        2.41588729321208
C            2.99247192136984       -0.46079318371999        1.45958796876538
C            4.51759055950851       -0.37565862414205        1.50583188668704
C            5.11559918091294       -0.78874820532831        2.84954826666337
C            6.64200445758697       -0.81463801494370        2.80256435143589
C            7.25339351127896       -1.16036533484783        4.15811326837554
C            8.77905120496517       -1.19469571806294        4.10962416178741
C            9.38327132399877       -1.50504276641415        5.47365158722091
Cl           0.44554897364111        1.55617013950726       -0.60284546402350
H            0.39820806357672        1.20349083631249        2.75822217454642
H            0.45674549411264       -0.34419424543809        2.19028082956283
H            0.65912208751618        1.09571910575366        0.67665153395640
H            2.49599887149364        0.21579613980452        3.45620611494547
H            2.71714278685174        1.51665340642212        2.26747666422101
H            2.65619822769859       -0.22821213878302        0.44839967092482
H            2.67672888506916       -1.48028688407887        1.69380233499019
H            4.82557585408547        0.64541957480878        1.27228273879714
H            4.92184904288390       -1.02674175280350        0.72789061153779
H            4.74672521338222       -1.78062076227812        3.12176939722484
H            4.79943831969620       -0.08981985334475        3.62610587332996
H            7.00747510234615        0.16381409782569        2.48214925071091
H            6.96893901876715       -1.54695506234052        2.06076857167603
H            6.88158336455697       -2.13436211624326        4.48545432923521
H            6.93453607680063       -0.42051882463660        4.89649634357812
H            9.14980110792216       -0.22824945717217        3.76047993306710
H            9.09980004432472       -1.95087167911075        3.38953364775068
H            9.09743466118095       -0.74608857776779        6.19887267504691
H           10.46888168709693       -1.53171562598790        5.41511515958656
H            9.03518206697405       -2.47046847949603        5.83471364533677
