35
 energy: -45.896806161816 gnorm: 0.000237933114 xtb: 6.5.1 (fef0646)
N            3.14511356824215       -1.57095875964326       -2.37227779092998
C            2.44222882422032       -0.25675157438954       -2.44506430648334
C            2.88772132581404        0.57640268783345       -1.23974323875022
C            4.39132259177353        0.66669766121492       -1.25117642435178
C            5.04201093348029        1.68553177644868       -1.93962490602731
C            6.41746826089758        1.71775799220135       -2.02299221781065
C            7.20565219483397        0.71992068373958       -1.43390975978182
C            8.65095386265744        0.71004999704583       -1.48746997234778
C            9.43000039783894        1.73929458283232       -1.85885476804117
C           10.87766254731950        1.74674106527552       -1.89769353895603
C           11.65049565890269        0.58483767150719       -1.80747101109825
C           13.02860178141470        0.65159590353200       -1.84854670392487
C           13.66755317612487        1.87553107645193       -1.97572546844240
C           12.91662010099704        3.03629696766460       -2.07077507936719
C           11.53794050925944        2.97216023004429       -2.03885446298824
C            6.54460508292100       -0.30860133600512       -0.75421592555146
C            5.16412843606772       -0.33959115784762       -0.66318836950347
H            3.20769149414978       -2.04029575136035       -3.27995169463942
H            2.68253896365530       -2.19638935603103       -1.70373190424989
H            4.10964036772096       -1.33719903593812       -1.99273462148384
H            1.36348756800964       -0.40911515420981       -2.45927488773739
H            2.74455636004856        0.24250493505774       -3.36649931445046
H            2.53435324791200        0.11640331541996       -0.31547715759669
H            2.44367968160779        1.56762774313404       -1.31265774277561
H            4.45960658292334        2.46866534446756       -2.40179188997497
H            6.88918818485280        2.52503192298185       -2.55895817954862
H            9.10897305161619       -0.21081933042822       -1.15375215267297
H            8.97140616766212        2.68190042050826       -2.12916956441209
H           11.17102185122464       -0.37829805208128       -1.72112771316164
H           13.61107986278966       -0.25522175131604       -1.78270646169303
H           14.74530445353064        1.92289820928329       -2.00484281179827
H           13.40859870024130        3.99178420500541       -2.17285782101537
H           10.95733637304747        3.88085934214833       -2.11255543893101
H            7.12429488429295       -1.08186703973085       -0.27258217419783
H            4.70091295194834       -1.09270543481821       -0.03524452530745
