  19
        -28.63432683
 N         -1.3839704455       -0.7423554488        0.6203877226
 C         -0.9757843703       -0.9045385488       -0.7650721382
 C          0.4309853275       -1.4836063650       -0.9051017835
 C          1.4569508680       -0.6337098726       -0.2449966344
 C          2.0892522734       -0.9133538795        0.9213968187
 C          3.0103520849        0.0961219278        1.3283245220
 C          3.0738975888        1.1364579398        0.4704539694
 S          2.0005628931        0.9007559791       -0.8635061574
 Cl        -4.4079458688        0.5952752090        0.2090944177
 H         -0.7083614163       -0.1545035002        1.0961797664
 H         -1.3421234038       -1.6401909802        1.0903454187
 H         -3.1947670489        0.0597736751        0.3803325489
 H         -1.0257501032        0.0742220208       -1.2593120684
 H         -1.7115396378       -1.5323470208       -1.2830318818
 H          0.6944679775       -1.6053246158       -1.9620864687
 H          0.4616390965       -2.4888418033       -0.4709162721
 H          1.9052004379       -1.8127011489        1.4886767261
 H          3.5962699718        0.0314335011        2.2332829453
 H          3.7001302318        2.0010087811        0.5840252704
