  25
        -36.48779649
 N          4.0185059307       -1.4749397664        0.8350986246
 C          4.3266235155       -0.0432410600        0.5604551487
 C          3.5579519677        0.4971099660       -0.6448870203
 C          2.0948680524        0.6225620275       -0.3988473864
 C          1.4333944289        1.7839344783       -0.0587790312
 C          0.0538626957        1.6313825686        0.0996505162
 C         -0.3961195700        0.3315215815       -0.1127307877
 C         -1.7330798188       -0.1078844946       -0.0388176918
 C         -2.1910628052       -1.4045014121       -0.2593950492
 C         -3.5744278467       -1.5443004932       -0.1199626761
 C         -4.2160372083       -0.3767369539        0.2086300122
 S         -3.0970542096        0.9067399908        0.3466001371
 S          0.9726694070       -0.6774597470       -0.4907716008
 H          4.4706903111       -1.8116029858        1.6991535215
 H          4.3351725364       -2.0775951408        0.0608506936
 H          3.0017775929       -1.6096050574        0.9321769930
 H          5.4082995004        0.0651913146        0.4082154272
 H          4.0869222212        0.5581648131        1.4457111581
 H          3.7166963707       -0.1622998019       -1.5050741178
 H          3.9533181339        1.4750771269       -0.9444868141
 H          1.9396371361        2.7307349017        0.0607908585
 H         -0.6105140006        2.4440276445        0.3530115202
 H         -1.5321372067       -2.2197519119       -0.5186549255
 H         -4.0912747777       -2.4842677340       -0.2594695222
 H         -5.2747053775       -0.2666688591        0.3610189135
