  22
        -34.88821668
 N          1.8701760271       -1.2051241340       -1.3889028348
 C          1.5866377952       -2.2083703022       -0.3258115897
 C          0.9481823812       -1.5701323624        0.9049534046
 C         -0.3005988386       -0.8067045513        0.5791062996
 C         -0.2446158845        0.5525851854        0.3040327140
 C         -1.3851824976        1.2501235964       -0.0354178906
 C         -2.6050746591        0.6034925597       -0.1138384981
 F         -3.7251208696        1.2884845522       -0.4521463398
 C         -2.6658056105       -0.7525817978        0.1503250487
 C         -1.5254641838       -1.4520658159        0.4897937175
 Cl         3.1902825224        1.6162654796        0.1810509453
 H          2.4106546902       -1.6023757805       -2.1747264677
 H          2.4033211853       -0.4046572203       -1.0006396386
 H          0.9937949273       -0.8207909993       -1.7736621748
 H          2.5143561721       -2.7240351431       -0.0482688245
 H          0.9242682393       -2.9837355034       -0.7292225478
 H          1.6651186726       -0.8903485909        1.3793964902
 H          0.7215405009       -2.3305126727        1.6616941881
 H          0.7067624768        1.0576307801        0.3458710029
 H         -1.3459792140        2.3046167377       -0.2484035129
 H         -3.6190125455       -1.2483063274        0.0826113899
 H         -1.5781938788       -2.5102094710        0.6857252799
  22
        -34.88805953
 N          1.9395604503       -1.0816145854        1.3886251774
 C          1.6082625223       -2.1746406616        0.4333593476
 C          0.9019693441       -1.6473511916       -0.8127505699
 C         -0.3286545571       -0.8546346491       -0.4878729687
 C         -0.2646771036        0.5258131107       -0.3581979084
 C         -1.3862759687        1.2542736333       -0.0204915679
 C         -2.5938993855        0.6186180362        0.2031001163
 F         -3.6947306087        1.3344012459        0.5407696968
 C         -2.6617296496       -0.7575437148        0.0848668547
 C         -1.5406744234       -1.4878352150       -0.2539724704
 Cl         3.1684277816        1.5846000069       -0.5011960082
 H          1.0811508176       -0.6662604333        1.7829708630
 H          2.4471963914       -0.3175795404        0.9046078341
 H          2.5216499593       -1.4073563268        2.1769356433
 H          0.9732523093       -2.9131408380        0.9369476934
 H          2.5238707953       -2.7106325199        0.1532909586
 H          0.6357000796       -2.4717403072       -1.4851546108
 H          1.5901263633       -1.0146039113       -1.3844853930
 H          0.6789620823        1.0240113872       -0.5107807158
 H         -1.3412372321        2.3252308015        0.0788219756
 H         -3.6050033784       -1.2440313829        0.2650270090
 H         -1.5984039489       -2.5605370064       -0.3366470292
  22
        -34.88212322
 N          2.7421011274       -1.8871290820        0.3304342872
 C          1.3403964558       -1.4659253140        0.6044743449
 C          0.7186742581       -0.7327738450       -0.5776882508
 C         -0.6837326617       -0.2742722520       -0.3051403281
 C         -0.9230342412        0.9644674346        0.2738166694
 C         -2.2103959366        1.3714152057        0.5589215330
 C         -3.2850329180        0.5478851003        0.2773476210
 F         -4.5497837899        0.9496235598        0.5552484035
 C         -3.0522566546       -0.6910056022       -0.2911394766
 C         -1.7653912196       -1.1000063341       -0.5767107687
 Cl         4.5412871575        0.9837552666       -0.4387136146
 H          3.1698434115       -2.3699113031        1.1373602422
 H          3.3317614251       -1.0636344102        0.1049019196
 H          2.7859356370       -2.5263535025       -0.4781052241
 H          1.3139610486       -0.8221348516        1.4916768828
 H          0.7310534026       -2.3409980847        0.8603375108
 H          0.7276742847       -1.3796033347       -1.4621498405
 H          1.3386516085        0.1298826831       -0.8457647766
 H         -0.0896131934        1.6078950197        0.5031992057
 H         -2.4006597805        2.3321767981        1.0057471105
 H         -3.8944247106       -1.3274663147       -0.5020288609
 H         -1.5907141259       -2.0703747176       -1.0111164704
  22
        -34.88193608
 N          2.7457977523       -1.9024730434        0.3002081263
 C          1.3422449142       -1.4897512296        0.5778115002
 C          0.7194011513       -0.7457362409       -0.5969597294
 C         -0.6801160160       -0.2825836217       -0.3174175184
 C         -0.9167868351        0.9782835698        0.2129406662
 C         -2.2018510466        1.3914763466        0.4995409758
 C         -3.2765348225        0.5521321061        0.2693211348
 F         -4.5386749257        0.9586526792        0.5520908916
 C         -3.0461384959       -0.7085511946       -0.2500579490
 C         -1.7616670717       -1.1235077085       -0.5378028953
 Cl         4.5194807371        1.0049940941       -0.3823266847
 H          3.3317027034       -1.0761693304        0.0936890994
 H          2.7941195034       -2.5285141410       -0.5237083771
 H          3.1720692739       -2.3992054671        1.0986894895
 H          1.3129444035       -0.8556174913        1.4718675051
 H          0.7359123220       -2.3697565451        0.8236983829
 H          0.7221856992       -1.3863971904       -1.4859720055
 H          1.3428432169        0.1156212710       -0.8611377542
 H         -0.0832744730        1.6345993838        0.4019113142
 H         -2.3903883501        2.3697005622        0.9074862803
 H         -3.8883741706       -1.3566721995       -0.4217782444
 H         -1.5886226022       -2.1098740125       -0.9353302351
  22
        -34.88185587
 N          2.7385584044       -1.8944666611        0.3121346513
 C          1.3378185773       -1.4730693176        0.5908639095
 C          0.7199879245       -0.7207310782       -0.5812377609
 C         -0.6835292549       -0.2666818646       -0.3068530827
 C         -0.9280350291        0.9773456454        0.2584861279
 C         -2.2169423057        1.3806405761        0.5418912703
 C         -3.2879201152        0.5480573603        0.2730512356
 F         -4.5539201167        0.9449122863        0.5522435790
 C         -3.0498567400       -0.6959668876       -0.2818292471
 C         -1.7615201395       -1.1011232131       -0.5661932282
 Cl         4.5485501936        0.9793907080       -0.4148186435
 H          2.7813450717       -2.5205188697       -0.5072967203
 H          3.1652537995       -2.3940706829        1.1141995812
 H          3.3290101081       -1.0730086524        0.1017836629
 H          1.3119942048       -0.8426271970        1.4876158234
 H          0.7257239323       -2.3501932141        0.8327520042
 H          0.7317404228       -1.3532761777       -1.4759472323
 H          1.3412201400        0.1458276171       -0.8333866352
 H         -0.0975710851        1.6281648016        0.4775339477
 H         -2.4115245112        2.3456416900        0.9775353775
 H         -3.8892517936       -1.3391279217       -0.4835084002
 H         -1.5828258060       -2.0748915590       -0.9913271758
  22
        -34.88135470
 N          2.7036282291       -1.2734521139        0.3297269224
 C          2.1058187051       -2.1289461427       -0.7318860372
 C          0.6691401134       -2.5308766752       -0.4108237638
 C         -0.2482346868       -1.3541731565       -0.2576923822
 C         -0.6879678985       -0.6528362155       -1.3715931313
 C         -1.5166708215        0.4418095170       -1.2328864604
 C         -1.9209142469        0.8614855114        0.0212261292
 F         -2.7278050123        1.9424721666        0.1572280282
 C         -1.4827279629        0.1695240849        1.1353176112
 C         -0.6521952984       -0.9242305580        0.9986681533
 Cl         1.3744446713        1.9621433753        0.4662215297
 H          2.6418111873       -1.7311826055        1.2526277709
 H          2.2104821780       -0.3634975560        0.4006725971
 H          3.6992403687       -1.0689107601        0.1475964713
 H          2.7266854590       -3.0224369174       -0.8733010847
 H          2.1358106440       -1.5926780388       -1.6879085295
 H          0.6524435344       -3.1212120097        0.5122259417
 H          0.2719740166       -3.1935458093       -1.1890643310
 H         -0.3747948149       -0.9728362800       -2.3517157126
 H         -1.8605998125        0.9879693723       -2.0944158735
 H         -1.7995104016        0.5054980685        2.1077504597
 H         -0.3095640580       -1.4531088042        1.8725319899
  22
        -34.88128371
 N          1.9091282809       -0.1877999347       -0.5942088467
 C          1.5758545146       -1.3990689522        0.2036287716
 C          0.3054710017       -2.0805270625       -0.2959765710
 C         -0.8930283422       -1.1816183243       -0.2234597650
 C         -1.3473448941       -0.5078900522       -1.3491415811
 C         -2.4216008723        0.3543548345       -1.2678106703
 C         -3.0616971461        0.5661794952       -0.0604733429
 F         -4.1126321711        1.4190237028        0.0196853391
 C         -2.6107538826       -0.0981753568        1.0652500614
 C         -1.5360899920       -0.9604773577        0.9859975837
 Cl         4.7636383326        1.3800684787        0.6164266510
 H          2.0616162040       -0.4276185400       -1.5864003430
 H          2.7662295049        0.2854607820       -0.2473286419
 H          1.1386611390        0.4967172805       -0.5598225222
 H          1.4513908080       -1.1157192102        1.2554817414
 H          2.4216098525       -2.0977560151        0.1814089085
 H          0.1051390506       -2.9936756476        0.2774378079
 H          0.4474039242       -2.4086323988       -1.3315571609
 H         -0.8490897425       -0.6611240535       -2.2922358894
 H         -2.7782567958        0.8774340445       -2.1384742758
 H         -3.1126749460        0.0755636721        2.0016222476
 H         -1.1837974418       -1.4673376642        1.8691061996
  22
        -34.88116145
 N          2.8267544303       -1.0262692910        0.0183599850
 C          2.0562096465       -2.2942145449        0.1398877479
 C          0.9296919500       -2.1909488772        1.1640900915
 C         -0.0709768170       -1.1249550797        0.8292624749
 C         -0.0827461134        0.0824892552        1.5145599152
 C         -0.9951006771        1.0662566793        1.1920369076
 C         -1.9096436803        0.8686894271        0.1737471173
 F         -2.7981943425        1.8402448344       -0.1497588171
 C         -1.8987237968       -0.3293883093       -0.5165427661
 C         -0.9884929841       -1.3153595262       -0.1938518539
 Cl         1.0662784145        1.5742596823       -1.5251179984
 H          3.6339118628       -1.1228186855       -0.6192056816
 H          3.1887424838       -0.7214756602        0.9397539915
 H          2.2352167534       -0.2632391763       -0.3492451510
 H          2.7378938482       -3.1112562865        0.4073419594
 H          1.6429826602       -2.5616259530       -0.8400025726
 H          1.3535244048       -1.9870468074        2.1538274701
 H          0.4086112243       -3.1509438686        1.2610745242
 H          0.6308865638        0.2475514399        2.3048323325
 H         -1.0088008120        2.0032463371        1.7218307796
 H         -2.6124904073       -0.4735311440       -1.3093923202
 H         -0.9842728443       -2.2456113118       -0.7373766866
  22
        -34.88109158
 N          1.8425991664       -0.4316493256        0.6665753342
 C          1.6083926130       -1.2454468308       -0.5572386980
 C          0.3062525062       -2.0365769967       -0.4773972210
 C         -0.8944770519       -1.1507643763       -0.3250114372
 C         -1.4302533511       -0.4938236232       -1.4239979022
 C         -2.5074623389        0.3565390241       -1.2800866948
 C         -3.0684518670        0.5738531652       -0.0349517372
 F         -4.1222805248        1.4150312029        0.1067695768
 C         -2.5355808279       -0.0732156314        1.0647276009
 C         -1.4587088370       -0.9245823734        0.9226826441
 Cl         4.7963202250        1.3795088177        0.4209992945
 H          2.7213813275        0.1119598738        0.6100879498
 H          1.8965349586       -1.0327363427        1.5084954662
 H          1.0712630767        0.2362404359        0.8160367909
 H          2.4586924611       -1.9198109869       -0.7177837537
 H          1.5836174832       -0.5841837053       -1.4317360690
 H          0.3500256460       -2.7322468501        0.3680535008
 H          0.1795773600       -2.6634380665       -1.3681067638
 H         -0.9928848039       -0.6523349299       -2.3959986480
 H         -2.9271866203        0.8663334373       -2.1302676938
 H         -2.9771944872        0.1037186193        2.0304318386
 H         -1.0448337660       -1.4189131374        1.7859391848
  22
        -34.88106366
 N          1.8432079691       -0.4299371342        0.6656524998
 C          1.6081424675       -1.2443020934       -0.5576211456
 C          0.3059427429       -2.0352218063       -0.4766267327
 C         -0.8947684028       -1.1493395621       -0.3244366277
 C         -1.4298832990       -0.4917932348       -1.4233772949
 C         -2.5076432981        0.3579227757       -1.2797768259
 C         -3.0699574877        0.5738734724       -0.0350037648
 F         -4.1252545933        1.4132949764        0.1061819329
 C         -2.5375818786       -0.0735905922        1.0646820232
 C         -1.4601386259       -0.9242884629        0.9229488678
 Cl         4.7997674114        1.3768101356        0.4210647652
 H          1.8963408447       -1.0284704339        1.5047840156
 H          1.0693203459        0.2415403317        0.8155534608
 H          2.7221846541        0.1123489915        0.6089150700
 H          2.4582147202       -1.9189040055       -0.7184247489
 H          1.5829323946       -0.5834009535       -1.4323696407
 H          0.3500602926       -2.7302553216        0.3693308972
 H          0.1788501107       -2.6627860872       -1.3667821250
 H         -0.9916809885       -0.6494499660       -2.3951401438
 H         -2.9270185974        0.8680209994       -2.1299474050
 H         -2.9803503017        0.1021651398        2.0300714064
 H         -1.0467987929       -1.4190936278        1.7861875164
  22
        -34.88099663
 N          1.8439502484       -0.4140298382        0.6609310442
 C          1.6059182107       -1.2350076411       -0.5572826913
 C          0.3050814710       -2.0271745562       -0.4675491124
 C         -0.8971270273       -1.1427000856       -0.3184755872
 C         -1.4196813502       -0.4726893971       -1.4158894350
 C         -2.5010142112        0.3730296205       -1.2756390523
 C         -3.0800707274        0.5719184761       -0.0357153456
 F         -4.1394050764        1.4068129453        0.1021509836
 C         -2.5604678015       -0.0882154224        1.0625452169
 C         -1.4790801758       -0.9345029651        0.9242454989
 Cl         4.8215100703        1.3609793009        0.4158669240
 H          2.7250755084        0.1253618386        0.6001391756
 H          1.8966953467       -1.0099079918        1.5066005274
 H          1.0750128841        0.2573694719        0.8072282388
 H          2.4562198218       -1.9095963938       -0.7169691140
 H          1.5774123636       -0.5789986047       -1.4355979607
 H          0.3528964281       -2.7162076314        0.3830902338
 H          0.1766505733       -2.6611568396       -1.3529375371
 H         -0.9691540869       -0.6178960039       -2.3839460965
 H         -2.9105164954        0.8928494349       -2.1247324896
 H         -3.0168755229        0.0735969821        2.0240204663
 H         -1.0764745286       -1.4398869927        1.7864166899
