  14
        -14.00298454
 N         -1.5200234929        0.5088539436       -0.1201800361
 C         -0.6420510280       -0.6180015868        0.3205545044
 C          0.7491531970       -0.6005265169       -0.3165298549
 C          1.6212193165        0.5661375260        0.1315942259
 H         -1.6378176922        0.5114420884       -1.1433532670
 H         -1.1366568466        1.4241880844        0.1541709781
 H         -2.4607478038        0.4375511921        0.2954819611
 H         -1.1498489912       -1.5636634171        0.0856460319
 H         -0.5511822744       -0.5971784548        1.4137810897
 H          0.6418402232       -0.5850522242       -1.4082722045
 H          1.2655612896       -1.5445128717       -0.0944708340
 H          2.6164553870        0.5249522170       -0.3175696443
 H          1.7555114157        0.5692512095        1.2145831337
 H          1.1843619235        1.5259676057       -0.1460162951
  14
        -14.00196995
 N         -1.8580186881       -0.0401065852       -0.2347566140
 C         -0.5446854591       -0.0052842699        0.4807088477
 C          0.6542475816        0.0075616296       -0.4660977718
 C          2.0004409411        0.0432335959        0.2507092260
 H         -1.9736678004        0.7822443100       -0.8438144615
 H         -2.6498974857       -0.0488020670        0.4250466605
 H         -1.9396597389       -0.8797705640       -0.8256140386
 H         -0.4796139234       -0.8706349292        1.1521220054
 H         -0.5146320773        0.8776393676        1.1314031224
 H          0.5686086893        0.8683118223       -1.1408686475
 H          0.6037146160       -0.8717826661       -1.1201142741
 H          2.1306213054       -0.8262030163        0.8973715384
 H          2.0943859947        0.9313366418        0.8777885822
 H          2.8362626170        0.0526713395       -0.4527119760
