39
 energy: -50.381047700723 gnorm: 0.000421678909 xtb: 6.5.1 (fef0646)
N           14.83301519667909        0.43725702794842        1.12825675924013
C           14.48028002628872        1.46414768399798        2.13875406489747
C           14.00368507823224        2.74106178890217        1.45674496922530
C           13.63154793098776        3.80211123189089        2.49028600371386
C           13.03503820125126        5.05380330597482        1.83644748363857
N           11.76018934698102        4.76505650296058        1.21541323442134
C           11.53920170380741        5.07465173787624       -0.19705394350294
C            9.95427081852474        4.85125258413027       -0.34720438991596
C           10.06006549317455        3.46797394908020       -0.86798022523416
C           10.56872067821045        3.35657788723589       -2.13874854463269
C           12.01506336222911        3.36011526543835       -2.05657903454420
C           12.42325042540974        4.22979898476187       -1.10837421784437
C           10.58414147421346        4.89111673890218        1.91997995218893
C            9.47816297838612        4.97060655673068        1.06194729925113
C            8.20070354875296        5.08127486883762        1.55584990700704
C            8.01692968077104        5.12334222535857        2.93457097769102
C            9.10668787636954        5.04346547541526        3.78404506041238
C           10.39973111376704        4.92366694164014        3.29488689425904
H           15.13969404444105       -0.43103674027749        1.58110601302645
H           15.58871766463323        0.78054832720891        0.52374229990222
H           14.01779553325395        0.23183135943998        0.53865136592578
H           15.35457366816032        1.67734376281282        2.75367008666103
H           13.69164715200437        1.07597925308527        2.78295394642865
H           13.12452666485735        2.53927166066440        0.84297454537327
H           14.78926977638406        3.13889978580715        0.81322579681868
H           14.51163057266977        4.09850185279938        3.06221110128584
H           12.89703129482767        3.39262502673177        3.18428479633834
H           13.71703057119473        5.43834908968095        1.07592770483465
H           12.90895985008821        5.83583748121658        2.59567467506883
H           11.78759471670240        6.13768247910341       -0.37933395743782
H            9.50567981087767        5.55309642131623       -1.04953497453981
H           10.48793868321649        2.79988871393631       -0.12435967690821
H           10.11652997693121        3.87846683451836       -2.97349593644972
H           12.69431286386286        2.92030431436608       -2.77182573158726
H           13.47463274604352        4.47216039216870       -1.03262987723482
H            7.35472377558290        5.14292469706542        0.88653536994213
H            7.02133720013884        5.22145769627008        3.34106821354431
H            8.94953619091926        5.07952605767082        4.85253695992847
H           11.22957230917242        4.87365077733575        3.98133502880762
