  16
        -22.21799869
 N         -0.5255592382       -0.7349134285       -0.6506279034
 C          0.0605050772       -0.6202174556        0.6730907991
 C          1.5378225033       -0.9791455268        0.6960738211
 S          2.5259948394       -0.0162826972       -0.4436047861
 C          2.3528306130        1.5742809968        0.3157181958
 Cl        -3.6200255860        0.3120809501       -0.0088810722
 H         -2.3811397862       -0.1099171009       -0.2732316981
 H         -0.4116114684       -1.6847629283       -0.9860211276
 H         -0.0005936569       -0.1565147188       -1.2969739093
 H         -0.5047777840       -1.2544206577        1.3687551077
 H         -0.0886126680        0.4038726803        1.0351705192
 H          1.6693128006       -2.0285273458        0.4206242948
 H          1.9603302805       -0.8665925570        1.6979512248
 H          3.0085049499        2.2888572204       -0.1762981292
 H          2.6225582635        1.5267324444        1.3682757305
 H          1.3304760066        1.9336481957        0.2278502260
