  16
        -22.21799869
 N         -0.5255592382       -0.7349134285       -0.6506279034
 C          0.0605050772       -0.6202174556        0.6730907991
 C          1.5378225033       -0.9791455268        0.6960738211
 S          2.5259948394       -0.0162826972       -0.4436047861
 C          2.3528306130        1.5742809968        0.3157181958
 Cl        -3.6200255860        0.3120809501       -0.0088810722
 H         -2.3811397862       -0.1099171009       -0.2732316981
 H         -0.4116114684       -1.6847629283       -0.9860211276
 H         -0.0005936569       -0.1565147188       -1.2969739093
 H         -0.5047777840       -1.2544206577        1.3687551077
 H         -0.0886126680        0.4038726803        1.0351705192
 H          1.6693128006       -2.0285273458        0.4206242948
 H          1.9603302805       -0.8665925570        1.6979512248
 H          3.0085049499        2.2888572204       -0.1762981292
 H          2.6225582635        1.5267324444        1.3682757305
 H          1.3304760066        1.9336481957        0.2278502260
  16
        -22.21707124
 N         -0.8971323711       -1.2529868006       -0.7788471049
 C          0.0692157791       -0.4186948509       -0.0798938051
 C          1.5061609858       -0.8731141720       -0.2767239889
 S          2.7021591354        0.0801393963        0.6571800757
 C          2.6179485120        1.5958524485       -0.2557843737
 Cl        -3.7061539722        0.3356676321        0.0511960502
 H         -2.5846027924       -0.3062456724       -0.2845440676
 H         -0.8084809106       -2.2117224937       -0.4612925247
 H         -0.6770002028       -1.2704069275       -1.7688442883
 H         -0.1747880381       -0.4072184279        0.9896992676
 H         -0.0529425006        0.6185639172       -0.4127059910
 H          1.7799467402       -0.8384787451       -1.3337775982
 H          1.6101503939       -1.9167440985        0.0292168408
 H          1.6446197065        2.0645281682       -0.1355497472
 H          2.7952628248        1.4151692215       -1.3134968704
 H          3.3761480789        2.2856843686        0.1078972092
  16
        -22.21691395
 N         -0.4575171314       -1.2189685822       -1.1824652366
 C          0.1630440472       -1.8365621454       -0.0206869142
 C          0.8543978397       -0.8283161627        0.8845970942
 S          2.1409045622        0.0976218106        0.0442243863
 C          1.2225404762        1.5655856428       -0.3364839344
 Cl        -2.5838570420        0.8639477528        0.3009682761
 H         -1.7394449654        0.0238908849       -0.3018228221
 H         -0.8879494690       -1.9223707942       -1.7741640358
 H          0.2592121341       -0.7797679160       -1.7490604427
 H          0.8897467138       -2.5925074851       -0.3470219316
 H         -0.6059238277       -2.3810938330        0.5426431959
 H          1.3136731231       -1.3279310502        1.7426440156
 H          0.1297375423       -0.1210573711        1.2939549049
 H          0.9035017486        2.0594035397        0.5783185462
 H          0.3433363765        1.3316014479       -0.9312352007
 H          1.8466956878        2.2551609991       -0.9002160698
  16
        -22.21663490
 N         -1.0620560484       -1.9375521463        0.4761120637
 C          0.2139245500       -1.2849374858        0.7447759292
 C          0.8425505248       -0.6980114074       -0.5088784994
 S          2.3757807796        0.1784614662       -0.2061355606
 C          1.7052913253        1.6427986176        0.5323122466
 Cl        -2.7338703744        0.8181164757       -0.3641070357
 H         -2.0780579484       -0.2942072939       -0.0257520820
 H         -1.4122042621       -2.4017974439        1.3076776711
 H         -0.9355298693       -2.6620790468       -0.2217258014
 H          0.9150758806       -1.9872098200        1.2144619079
 H          0.0511695665       -0.4918158382        1.4835195081
 H          0.1459944512       -0.0187837459       -1.0054787767
 H          1.0516260841       -1.4935914050       -1.2278670280
 H          2.5022521323        2.3596191009        0.7154751171
 H          1.2273985947        1.4130396973        1.4813277728
 H          0.9736870286        2.1023725656       -0.1283576627
  16
        -22.21646109
 N         -0.6246796169       -1.5871620872       -0.8184562836
 C          0.1602509761       -1.7139773345        0.4003059257
 C          0.8154799313       -0.4013044453        0.7983619457
 S          1.9855398541        0.1686155777       -0.4297103849
 C          2.3951551525        1.7146830990        0.3331837461
 Cl        -2.8700783433        0.6816877550        0.1167576300
 H         -1.9736164339       -0.2296676660       -0.2675708267
 H         -0.9751052042       -2.4911071224       -1.1183061348
 H         -0.0292606148       -1.2483360950       -1.5659716449
 H          0.9326930434       -2.4838246619        0.2718540777
 H         -0.4952613897       -2.0712047736        1.2051220223
 H          1.3396104752       -0.4927336298        1.7536674383
 H          0.0562872294        0.3734459428        0.9248020003
 H          1.5100774108        2.3402340334        0.4217538201
 H          3.1320301028        2.2408922837       -0.2692797618
 H          2.8111745192        1.5509439781        1.3246597688
  16
        -22.21641759
 N         -0.6225292978       -1.5769957003       -0.8207258823
 C          0.1577192907       -1.7012109755        0.4013248822
 C          0.8169057518       -0.3893708602        0.7956384630
 S          1.9958264065        0.1682498560       -0.4296220354
 C          2.4217189422        1.7089408065        0.3352590559
 Cl        -2.8910163473        0.6700000994        0.1174115007
 H         -1.9856104218       -0.2319849890       -0.2680908924
 H         -0.9702101845       -2.4818814871       -1.1210801423
 H         -0.0247149556       -1.2379091283       -1.5660940613
 H          0.9276116921       -2.4746198988        0.2791694541
 H         -0.5021079673       -2.0521695694        1.2053762562
 H          1.3357257378       -0.4781340223        1.7540835092
 H          0.0607170227        0.3896162648        0.9138825496
 H          3.1622950851        2.2290990853       -0.2676040927
 H          2.8382425216        1.5392404749        1.3255356695
 H          1.5427141191        2.3429363155        0.4268640940
  16
        -22.21622720
 N         -0.5988836298       -0.5552718560       -0.6908565400
 C         -0.0733845435       -0.4444392142        0.6588551824
 C          1.4453331502       -0.4830576555        0.7036347363
 S          2.1815406165        0.8823022204       -0.1887674802
 C          3.8801092353        0.4475410441        0.0683400504
 Cl        -3.8673041821       -0.3249973674       -0.0986444908
 H         -2.5576390927       -0.4188954792       -0.3412247790
 H         -0.2723519102       -1.4196428562       -1.1082214695
 H         -0.2052807032        0.1857826614       -1.2599226953
 H         -0.5039372396       -1.2449409356        1.2748753185
 H         -0.4345623044        0.4927855088        1.1002640389
 H          1.8117850175       -1.4126606070        0.2619113017
 H          1.8107579238       -0.4543710476        1.7334965348
 H          4.1107389554        0.4290460258        1.1308001680
 H          4.5258734653        1.1781428595       -0.4133668488
 H          4.0901090918       -0.5321920506       -0.3545515550
  16
        -22.21560689
 N         -0.3059133321       -1.2195229339       -1.0143472427
 C          0.4247749047       -1.4178258393        0.2277362967
 C          0.7140033130       -0.1051810424        0.9393006191
 S          1.6286675121        1.0624784211       -0.0614758002
 C          3.1719912190        0.1987788005       -0.1534333439
 Cl        -3.1131049898        0.1665720153        0.1135210360
 H         -1.9881372967       -0.3851448404       -0.3465766380
 H         -0.4025617791       -2.0932238847       -1.5218570384
 H          0.2168086472       -0.5933517740       -1.6166644723
 H          1.3629393591       -1.9518389125        0.0305222725
 H         -0.1617351251       -2.0790315515        0.8787143775
 H          1.2628093798       -0.2666260429        1.8711257071
 H         -0.2245483251        0.3826219233        1.2126992153
 H          3.9159038618        0.8273038292       -0.6372610747
 H          3.0682818316       -0.7147326364       -0.7336821222
 H          3.5286850562       -0.0529931528        0.8426582027
  16
        -22.21504928
 N         -0.8584047457       -1.4307653175       -0.0390199048
 C         -0.0776394625       -0.2031829960        0.0001989751
 C          1.4207326612       -0.4451530543        0.0692798826
 S          2.3631134370        1.0780289979        0.1115003377
 C          3.9796478781        0.3565990238        0.1820900754
 Cl        -3.9352016994       -0.1602860085       -0.1862579474
 H         -2.7045518570       -0.6747919411       -0.1274896268
 H         -0.6483941334       -1.9928090374        0.7788272351
 H         -0.5712581947       -1.9878172429       -0.8360186352
 H         -0.3990088583        0.3998813853        0.8586279209
 H         -0.3178884055        0.4036524865       -0.8815550706
 H          1.7496341354       -1.0311812468       -0.7921041417
 H          1.6693374930       -1.0302327277        0.9574665562
 H          4.1584370311       -0.2615578952       -0.6945162319
 H          4.0828341461       -0.2581669672        1.0733721064
 H          4.7332782625        1.1402006700        0.2126981784
  16
        -22.21494886
 N         -0.7269331165       -1.9266032278        0.2106289988
 C          0.3190809748       -1.0095007970        0.6466389258
 C          0.7396224425       -0.0427677205       -0.4486411073
 S          1.9212781044        1.1922771555        0.0889239212
 C          3.3465780595        0.1534754594        0.2533695619
 Cl        -3.2145738874        0.2151570829       -0.3584009548
 H         -2.2257740211       -0.6511940346       -0.1264354196
 H         -0.9334351935       -2.6070342709        0.9346427959
 H         -0.4050532739       -2.4550056450       -0.5929121883
 H          1.1894344391       -1.5710929580        1.0084570162
 H         -0.0465206411       -0.4398046986        1.5097236360
 H         -0.1365785928        0.4875382539       -0.8294927681
 H          1.1588233394       -0.5833018778       -1.3000654664
 H          4.2173619916        0.7603450171        0.4900807118
 H          3.5397836716       -0.3793183480       -0.6749116589
 H          3.2066078141       -0.5694783110        1.0531797730
  16
        -22.21480144
 N         -0.7628972366       -1.8648508677        0.2574701210
 C          0.3871356554       -1.6316804771        1.1187285325
 C          1.6153166942       -1.1754822089        0.3451867882
 S          1.3491907797        0.2923089610       -0.6416768490
 C          1.1626814287        1.4730540591        0.6649055920
 Cl        -2.1312521769        1.0975948175       -0.4447729207
 H         -1.5761439869       -0.0859559779       -0.1750813500
 H         -1.4918818931       -2.3646376239        0.7588575457
 H         -0.4904586419       -2.4610275462       -0.5162576158
 H          0.6204501834       -2.5406464269        1.6906708927
 H          0.1127820493       -0.8763815499        1.8641787347
 H          1.9320756395       -1.9635190275       -0.3427056711
 H          2.4610675082       -0.9908605442        1.0128458383
 H          1.0789791419        2.4727538450        0.2452249991
 H          2.0235513888        1.4477028595        1.3290564489
 H          0.2640740393        1.2706293531        1.2421688146
  16
        -22.21464608
 N         -0.4667083139        0.1579485467       -0.6410688820
 C          0.0244108724       -0.9100318007        0.2109017336
 C          1.5365165945       -1.0651484810        0.1713990785
 S          2.3991774608        0.4094735431        0.7225874379
 C          2.8583401821        1.0773892507       -0.8541753152
 Cl        -3.7440509338       -0.0987627075       -0.1066921640
 H         -2.4311926567        0.0094475643       -0.3241465880
 H         -0.1549165499        0.0011913018       -1.5930449772
 H         -0.0500508506        1.0356499045       -0.3515702133
 H         -0.4700600426       -1.8471486135       -0.0771011161
 H         -0.3011741479       -0.7123076405        1.2398358035
 H          1.8699452157       -1.3104202863       -0.8397241064
 H          1.8581726505       -1.8924779862        0.8103209712
 H          1.9821829119        1.2575938930       -1.4715571506
 H          3.5201885621        0.3907693199       -1.3771660987
 H          3.3816156623        2.0207163753       -0.7153720719
  16
        -22.21454525
 N         -1.0103536458       -1.8973858182       -0.7454479158
 C          0.1653381430       -1.5558485527        0.0461196294
 C          0.8050264322       -0.2485012484       -0.3907094483
 S          2.2241977198        0.1941729959        0.6088262726
 C          2.5945831437        1.7381926948       -0.1769209526
 Cl        -2.9814776528        0.6685360169        0.0392626420
 H         -2.2014451331       -0.3675780693       -0.2772771678
 H         -1.3712134723       -2.8071344266       -0.4778568312
 H         -0.7539564586       -1.9702774263       -1.7239708948
 H          0.9081085057       -2.3631344465       -0.0006909374
 H         -0.1255022667       -1.4814943077        1.1012012612
 H          0.0770318814        0.5640890178       -0.3357284073
 H          1.1217473628       -0.3112707581       -1.4340970348
 H          3.4627511300        2.1937254997        0.2934200501
 H          1.7533678547        2.4216034801       -0.0862677052
 H          2.8118982620        1.5854393799       -1.2315843528
  16
        -22.21363839
 N         -0.7322564155       -1.8641370891        0.7306216546
 C          0.6160938397       -1.6264838117        1.2110056966
 C          1.5855033537       -1.1964584545        0.1187424149
 S          1.2236433112        0.4028095559       -0.6032027668
 C          1.6923286121        1.4300578311        0.7630661033
 Cl        -2.3693569001        0.9649871126       -0.6313890527
 H         -1.0440929536        0.8700628660       -0.6847121873
 H         -0.7285505214       -2.5484981129       -0.0166769803
 H         -1.1462427121       -1.0200127628        0.3513384206
 H          0.9716277998       -2.5444085066        1.6975515942
 H          0.5808066302       -0.8761612317        2.0089258933
 H          1.5707241841       -1.9259945039       -0.6946811448
 H          2.6135765307       -1.1711583901        0.4896252764
 H          1.6337673204        2.4762797753        0.4722203287
 H          2.7130641344        1.2144133722        1.0702519096
 H          1.0279564645        1.2736483963        1.6092890737
  16
        -22.21352065
 N         -0.6315650604        0.0745582019        0.9860210566
 C          0.0488942685       -0.8564844901        0.1005571782
 C          1.5199746749       -1.0812195838        0.4511519271
 S          2.6678682962       -0.0307703685       -0.4404331095
 C          2.2882415938        1.5452840621        0.2707294607
 Cl        -3.6523271448        0.1002365605       -0.4194541058
 H         -2.4439851492        0.0939618983        0.1482593554
 H         -0.1597175834        0.9704979447        0.9858138138
 H         -0.5769942716       -0.2635053094        1.9404670060
 H         -0.0370596411       -0.5022297871       -0.9342153130
 H         -0.5043951670       -1.8051324426        0.1242762794
 H          1.8160041151       -2.1102187289        0.2254755954
 H          1.6835901408       -0.9474860194        1.5225609663
 H          2.2181253922        1.4746741388        1.3536392347
 H          1.3521112210        1.9270910303       -0.1291751127
 H          3.0740734571        2.2555644910        0.0233219769
  16
        -22.21321235
 N         -0.6002001798       -1.0791662587        1.4823660845
 C          0.2566967675       -1.8913977172        0.6315493378
 C          1.5804035443       -1.2203599652        0.2954548398
 S          1.3980896229        0.2565023773       -0.7025525161
 C          1.1532489505        1.4448069283        0.5877051124
 Cl        -2.1765649663        0.9025923963       -0.7085585345
 H         -1.5442963543        0.1093055866        0.1575824411
 H         -0.0837691235       -0.7997187563        2.3090034929
 H         -1.3866770664       -1.6263679219        1.8215251391
 H         -0.2836919165       -2.1084618238       -0.2981678622
 H          0.4392046863       -2.8646989859        1.1078396340
 H          2.2273573093       -1.9045764567       -0.2615683525
 H          2.1219248392       -0.9601468609        1.2074961340
 H          0.2716449338        1.2018470922        1.1741171304
 H          1.0155956090        2.4331129360        0.1549690236
 H          2.0175709668        1.4737969642        1.2472340483
  16
        -22.21284772
 N          0.5434870412       -3.1170538832        0.9087120728
 C          0.4303712034       -1.6720344635        0.8121476012
 C          1.2024793027       -1.0884202997       -0.3600252550
 S          1.0018354640        0.6832999589       -0.5493751377
 C          1.9636212131        1.2162639849        0.8402491616
 Cl        -2.6283698948        1.3449238955       -0.4397903615
 H         -1.3208410432        1.1128834454       -0.4844996066
 H          1.5143964325       -3.3897754249        1.0031501004
 H          0.1962625719       -3.5580637658        0.0651040096
 H          0.7701772644       -1.2273713351        1.7548147491
 H         -0.6297422421       -1.4016353937        0.7338624769
 H          0.8722917758       -1.5560080479       -1.2909056979
 H          2.2676427179       -1.3122403082       -0.2697686177
 H          2.0364572615        2.3012866620        0.8411437381
 H          2.9684026753        0.8031231999        0.7897153237
 H          1.4996436718        0.9043864577        1.7726757440
  16
        -22.21200870
 N         -0.5667653818       -1.0158031771        1.6150545208
 C          0.5567110973       -1.6197484228        0.9109811130
 C          0.8565790513       -0.9123204823       -0.4020999286
 S          0.9931255813        0.8621444104       -0.2185033285
 C          2.6738580952        0.9553800012        0.3310897640
 Cl        -2.3406494218        0.3161949248       -0.8999440268
 H         -1.6551263234       -0.2119548734        0.1140188307
 H         -0.2875996649       -0.1123564757        1.9854760606
 H         -0.8365407400       -1.5763132356        2.4169086951
 H          0.3365303548       -2.6786782587        0.7210376674
 H          1.4454067728       -1.6114886104        1.5554211302
 H          0.0482797279       -1.0937993801       -1.1151855700
 H          1.7675816600       -1.2946408009       -0.8699294288
 H          2.9502686096        1.9936084501        0.4989968145
 H          3.3425275098        0.5364776352       -0.4174552805
 H          2.8015731051        0.4089553712        1.2625684856
  16
        -22.21108212
 N          0.4901785985       -3.0807493953        0.9365526113
 C          0.3494347515       -1.6409822645        0.7818450279
 C          1.2149919302       -1.0921121531       -0.3405979089
 S          1.0557855898        0.6776546795       -0.5817957353
 C          1.9416780314        1.2275846256        0.8511954968
 Cl        -2.5749165034        1.3217178135       -0.4403079187
 H         -1.2664782967        1.0985647121       -0.4982311669
 H          0.2615956589       -3.5580917501        0.0726558858
 H         -0.1264354292       -3.4431586928        1.6547263210
 H          0.6201698375       -1.1587881270        1.7283232002
 H         -0.7006532450       -1.3768518020        0.6020451775
 H          0.9508536979       -1.5770748013       -1.2835892775
 H          2.2657658216       -1.3306418735       -0.1625135457
 H          2.0364664121        2.3107152565        0.8305585818
 H          2.9390820269        0.7945116541        0.8724114749
 H          1.4157248939        0.9477704795        1.7606231698
  16
        -22.21026001
 N         -0.6047783362       -2.0710676744       -0.6450007954
 C          0.7764150291       -1.8420736245       -0.2372657853
 C          0.8869696452       -0.7533056567        0.8235912787
 S          0.8649581244        0.8922309870        0.1020214789
 C          2.6193308050        1.0935649944       -0.0590692482
 Cl        -2.2804969479        0.7533117649       -0.0153756440
 H         -1.6081052681       -0.3648502293       -0.2886081780
 H         -1.0913484091       -2.5925674505        0.0789063933
 H         -0.6442007644       -2.6494384627       -1.4780407240
 H          1.3688616121       -1.5458881715       -1.1120754738
 H          1.2186907468       -2.7830544622        0.1186453317
 H          1.7993307972       -0.8582445170        1.4174175946
 H          0.0530900719       -0.8301407132        1.5250283384
 H          3.0415679180        0.2964129713       -0.6661724765
 H          3.0955292963        1.0822964607        0.9187219075
 H          2.8381723741        2.0452836320       -0.5378707613
  16
        -22.21003210
 N         -0.5592226533       -1.9285790221       -0.6571451433
 C          0.1903264382       -1.8299165156        0.5876024298
 C          1.4073903472       -0.9259134186        0.4693574308
 S          1.0180581720        0.7704501135        0.0387232892
 C          2.6971418801        1.3369953817       -0.0004737490
 Cl        -2.4508034335        0.7520163542       -0.1598592232
 H         -1.6812416482       -0.3151806215       -0.3759706624
 H         -1.2109272497       -2.7077695791       -0.6308628354
 H          0.0746664323       -2.1132643006       -1.4262483653
 H          0.4964940459       -2.8311160060        0.9215154825
 H         -0.4778319401       -1.4444582109        1.3672178418
 H          2.0826103419       -1.3137078585       -0.2972072199
 H          1.9721817751       -0.9114284788        1.4054278508
 H          3.1681303124        1.2022585282        0.9703637417
 H          2.7231118306        2.3946708010       -0.2526163211
 H          3.2672377303        0.7900534247       -0.7479945682
  16
        -22.20994777
 N         -0.5489316054       -1.9201985548       -0.6747385796
 C          0.1841576117       -1.8286195644        0.5804742812
 C          1.4016577932       -0.9227102964        0.4832107478
 S          1.0175812461        0.7711073058        0.0380999660
 C          2.6984206078        1.3320986097       -0.0070298339
 Cl        -2.4509305380        0.7479241863       -0.1513117986
 H         -1.6777246338       -0.3146539946       -0.3764624220
 H         -1.1964533923       -2.7031921437       -0.6644867676
 H          0.0958859149       -2.0936224840       -1.4374042830
 H          0.4869039428       -2.8313915162        0.9127463768
 H         -0.4948101599       -1.4484823968        1.3533345881
 H          2.0922893243       -1.3122993903       -0.2685802064
 H          1.9481782687       -0.9034636287        1.4299829429
 H          2.7271524958        2.3883494784       -0.2637997496
 H          3.2650476513        0.7802445863       -0.7535449351
 H          3.1711783523        1.1998719958        0.9634893861
  16
        -22.20991463
 N          0.4918439457       -3.1105026564        0.8812702391
 C          0.4013540812       -1.6607689719        0.8005590721
 C          1.2172213817       -1.0943747464       -0.3500459893
 S          1.0247579310        0.6738355945       -0.5763535489
 C          1.9370362626        1.2291106622        0.8377006287
 Cl        -2.6039128070        1.3411932384       -0.4478330344
 H         -1.2973229125        1.1063258675       -0.5018375083
 H         -0.0257926080       -3.4760709369        1.6723848530
 H          1.4555831560       -3.4048248901        0.9869007387
 H          0.7168423505       -1.2074455983        1.7484748767
 H         -0.6506899359       -1.3793000408        0.6704133338
 H          0.9198401442       -1.5803971994       -1.2825694271
 H          2.2780047333       -1.3180064453       -0.2176085399
 H          2.0129346817        2.3138265247        0.8223095149
 H          2.9418338739        0.8129663909        0.8308864672
 H          1.4386449248        0.9343625371        1.7578930365
