24
 energy: -28.884405891992 gnorm: 0.000865353303 xtb: 6.5.1 (fef0646)
N            0.88131248368763        2.32216541182728        0.35539998547341
C            2.37528234682575        2.23012524623746        0.29591984148973
C            2.86045839480379        0.94002280842376        0.93903481945954
C            4.39350343972565        0.95276611364833        1.04575013918610
C            4.86831944610481        2.04631224542085        1.96738151752085
C            4.70578402734874        1.91625093027462        3.34197178369096
C            5.12311564416412        2.91959479516670        4.19793831885690
C            5.71023377383673        4.06643634807731        3.68875673563045
C            5.87942134662217        4.20346726189697        2.32195987730124
C            5.45679724491680        3.20006584120212        1.46604513495182
H            0.53988797460941        3.18443272465783       -0.08656561077881
H            0.57534030820136        2.30857736696466        1.33724905851669
H            0.46209017275109        1.51391185484257       -0.12296439481032
H            2.79969591651451        3.08465484036678        0.82605263633313
H            2.68323913419881        2.27603946549091       -0.74897847614394
H            2.54476665557468        0.07786187712011        0.34993104690316
H            2.44473093642802        0.84852231338626        1.94431668854254
H            4.82720401500311        1.08331224377173        0.05390733199150
H            4.71909433262689       -0.01397233345902        1.43073307203427
H            4.26658925377551        1.01490675324355        3.74519717466996
H            5.00006231419970        2.80184876577190        5.26368351734661
H            6.04426130229909        4.84526977288706        4.35625960088117
H            6.34777170220509        5.08864017222749        1.92018966631399
H            5.60442783357744        3.30700718055367        0.40008053463887
