19
 energy: -26.209521152788 gnorm: 0.000161162777 xtb: 6.5.1 (fef0646)
N            1.07957679175529        0.13617445185547        0.48853593357699
C            2.54003303858954        0.06793237144710        0.50786693516954
C            3.00321088137950       -1.31421233600183        0.05638397805753
C            4.52268608255719       -1.39128895816423       -0.04884369115914
C            4.98898145795991       -2.78153605447115       -0.48656347477794
O            6.39019980062430       -2.88446103277358       -0.56086843231058
Cl           0.12814547280179       -0.36651954707400       -2.24138653778378
H            0.74948018490260        1.05022475612821        0.77763169901922
H            0.67844672376941       -0.56591319325201        1.10171800630010
H            0.57287815378651       -0.13187016195353       -0.96539360900311
H            2.95131445769809        0.28780864632574        1.50348054240725
H            2.91081997065342        0.82473581892969       -0.18736267770249
H            2.55463633833977       -1.53205935588697       -0.91321919464888
H            2.64958897014483       -2.06509078673441        0.76635437331602
H            4.97882726138395       -1.15610672044360        0.91540707777638
H            4.87368488436352       -0.65163660328305       -0.77388301230126
H            4.52982758866949       -3.03723973696880       -1.45236899476578
H            4.68296448965431       -3.53025650195253        0.24771332480144
H            6.71491745096716       -2.24165505572664       -1.20126224597118
