  18
        -21.24418653
 N         -1.4171458589        1.1749127885       -0.2350684185
 C         -1.6366788589       -0.1748418470        0.3529751948
 C         -0.7205068984       -1.2504095451       -0.2365396172
 C          0.7448285656       -1.2250088484        0.2373897210
 C          1.6090051122       -0.1097171249       -0.3573373701
 O          1.3747251726        1.1597966421        0.2208913071
 H         -1.6455580248        1.1970905186       -1.2386229374
 H         -0.4150005358        1.4010898916       -0.1281450872
 H         -1.9706828257        1.9058961765        0.2352033212
 H         -2.6910704335       -0.4457256618        0.2035730926
 H         -1.4968490091       -0.1269736988        1.4403317167
 H         -0.7478466262       -1.1828876047       -1.3301030287
 H         -1.1469751225       -2.2364050426       -0.0042605458
 H          1.2091827689       -2.1917373156       -0.0014500277
 H          0.7759111988       -1.1535971065        1.3300298660
 H          1.4118741158       -0.0039301559       -1.4320639900
 H          2.6829203403       -0.3335924895       -0.2705705457
 H          1.9456139480        1.3227585846        0.9982291036
