36
 energy: -55.149091046319 gnorm: 0.000549154224 xtb: 6.5.1 (fef0646)
N            1.00786075629104        1.56825399554076        1.28471846817177
C            2.45389193804006        1.55578734807256        1.58212047668739
C            2.99801384481708        0.13515601177353        1.42870879784562
C            4.49749486916620        0.12863943973225        1.51000186898884
C            5.15261029275774       -0.13674656633145        2.70691159391735
C            6.53090780379882       -0.13368297890982        2.77908675739706
C            7.30575441527508        0.14255378915528        1.64996829677705
C            8.75628120657231        0.13809638854894        1.65720783063342
C            9.54188739004387       -0.34971057683948        2.62819373198730
C           10.99233991941084       -0.38231352176745        2.61265278319640
C           11.75618668939847        0.34024894369452        1.69167742772971
C           13.12848482164809        0.24155546783536        1.73529486594647
F           13.86020546593641        0.95839592365906        0.82549722440058
C           13.80099861911321       -0.54338797322665        2.65243765415054
C           13.04319141495533       -1.25237461463611        3.57106271893443
C           11.66472940809359       -1.16893317758894        3.55451850107033
C            6.63943900773620        0.43180019196869        0.45472608899094
C            5.26187163735270        0.42077640328427        0.38615607472466
Cl           0.62633259084048        0.51733433797693       -1.56280757421297
H            0.61695011192112        2.51038846389104        1.35132819980674
H            0.50055215624099        0.93675555573277        1.90972023036805
H            0.85171128760978        1.22285605917072        0.30253039712145
H            2.62828263839419        1.92104242966347        2.59501430902235
H            2.96127860453192        2.21006948279175        0.87322239878634
H            2.68240660617890       -0.24320446392339        0.45435135272270
H            2.58708312250700       -0.50984766266752        2.20533518956815
H            4.57647560872246       -0.35756149811095        3.59301097750465
H            7.01119849769028       -0.33794478737926        3.72289767249661
H            9.20820433125524        0.54047495181992        0.76012582898097
H            9.09341635460709       -0.80274034431280        3.50124857215612
H           11.30004168716922        0.98189330986067        0.95584710642824
H           14.87736219708260       -0.58765104293488        2.64160305123819
H           13.53877067243822       -1.87102803629367        4.30270899380257
H           11.08980489017674       -1.72834210560228        4.27686750496799
H            7.21683762963021        0.65293821975910       -0.43198532457789
H            4.76772151259325        0.62976263659469       -0.55210004772628
