22
 energy: -27.835765559148 gnorm: 0.000632745160 xtb: 6.5.1 (fef0646)
N            3.81841486820649       -0.01500601810523       -0.83133151179773
C            2.54843839427495        0.01532982678772       -0.00817612040731
C            2.87854255649967        0.46204281694620        1.38382227232654
C            2.82922333977876        1.81118500944482        1.72393509606484
C            3.16349539674698        2.22476285200883        2.99659963273031
C            3.56440212265561        1.30355052974597        3.96802765739231
C            3.92458394444035        1.69172026102019        5.32492179666932
C            3.68288849333471        2.86859565776517        5.89147742323012
C            3.62210191458531       -0.04733052433600        3.61137674064421
C            3.28258456278340       -0.46430630562760        2.34132286614242
H            3.64193835293849       -0.31470140910048       -1.79821185920684
H            4.48806806768373       -0.66044037921955       -0.39229954367115
H            4.23851124083807        0.92365041425417       -0.83766946031881
H            2.12452969544032       -0.98938589850681       -0.01127066404529
H            1.85248470873773        0.70238231223290       -0.49015685232830
H            2.51128755821363        2.53952523180991        0.99152992880856
H            3.11962511271295        3.27400023879217        3.23810655548797
H            4.41250045622856        0.91704203884964        5.90232252550399
H            3.17331861746194        3.67007796624552        5.38511061066257
H            3.97796946943206        3.06633015804794        6.90687800223633
H            3.92600395728995       -0.77586975258805        4.34736001218824
H            3.31492716971636       -1.51642502646745        2.09592489168770
