  19
        -26.25895549
 N         -0.0804022647       -0.6308203894       -1.3401843721
 C          0.5418447639       -1.6774037718       -0.4860890548
 C          0.8418402991       -1.1789541797        0.9268874935
 C          2.0454563249       -0.2330849158        1.0500817511
 C          1.8137888395        1.1920259038        0.5284571285
 O          1.9935558770        1.3502219876       -0.8691538496
 Cl        -3.0158750551        0.4137801349        0.2307382164
 H         -0.2390331618       -0.9423740863       -2.3076675005
 H          0.5564483865        0.1834185122       -1.3506109649
 H         -0.9776272287       -0.3156169430       -0.9422063974
 H          1.4654028083       -2.0406475522       -0.9517985805
 H         -0.1274431763       -2.5465288359       -0.4493869995
 H          1.0024548015       -2.0468397098        1.5807325696
 H         -0.0491415709       -0.6839166760        1.3291357155
 H          2.9100140466       -0.6691007353        0.5392689402
 H          2.3394757590       -0.1759352482        2.1068867515
 H          2.4737692004        1.9112082550        1.0338050084
 H          0.7939755289        1.5164904726        0.7664690222
 H          2.9278588575        1.1993636360       -1.1136532318
