  19
  -26.178341950000000       0.29995186636297044      !gc
 N         -0.1555644444       -1.3768648768        1.1297759192
 C         -0.9538449229       -1.8393316330       -0.0352860289
 C         -1.2379602676       -0.7239780439       -1.0389515940
 C         -2.1572703827        0.3815237229       -0.4844194706
 C         -1.4242127083        1.6586561537       -0.0838893621
 O         -0.4394364775        1.4700386388        0.9128476908
 Cl         2.5711563477        0.1678256415       -0.2951741112
 H          0.7638909380       -1.0249644862        0.8153706086
 H          0.0096676970       -2.1250520819        1.8209647962
 H         -0.6307339272       -0.5896352430        1.6142178937
 H         -1.9004921025       -2.2660822807        0.3169555185
 H         -0.4247452220       -2.6673936951       -0.5257562469
 H         -1.6817584227       -1.1598912119       -1.9451215072
 H         -0.2928865864       -0.2811369863       -1.3755642487
 H         -2.7020140320       -0.0064732000        0.3844308832
 H         -2.9363015203        0.6304722651       -1.2181786481
 H         -2.1311646151        2.3966589585        0.3160044494
 H         -0.9594791861        2.1322064281       -0.9580818868
 H          0.3822210016        1.0908546205        0.5205938200
  19
  -26.178191399999999       0.25577823075931189      !gc
 N         -0.1562672542       -1.3773137410        1.1276027413
 C         -0.9577736917       -1.8403034362       -0.0349956660
 C         -1.2435519638       -0.7259053384       -1.0392051108
 C         -2.1600174735        0.3813758599       -0.4835728390
 C         -1.4241308290        1.6575967030       -0.0854599602
 O         -0.4404126991        1.4687910411        0.9123674386
 Cl         2.5766141261        0.1703580744       -0.2935947613
 H          0.0109141237       -2.1264679704        1.8202530145
 H         -0.6281903116       -0.5942091888        1.6102998492
 H          0.7651448701       -1.0240910709        0.8102077613
 H         -1.9038618771       -2.2658261575        0.3201995972
 H         -0.4306742419       -2.6694254098       -0.5258434249
 H         -1.6905641165       -1.1625811061       -1.9434368811
 H         -0.2990026264       -0.2845368220       -1.3791867322
 H         -2.7037336092       -0.0050722997        0.3866090319
 H         -2.9399588941        0.6311173086       -1.2160896446
 H         -2.1294810326        2.3981572791        0.3124963571
 H         -0.9580012046        2.1281585133       -0.9605353575
 H          0.3821133407        1.0902390924        0.5213203490
  19
  -26.178008410000000       0.21074981285754499      !gc
 N         -0.1559683471       -1.3752412299        1.1286306437
 C         -0.9536127981       -1.8383089084       -0.0366380669
 C         -1.2404430233       -0.7228161948       -1.0393056654
 C         -2.1603611730        0.3811891403       -0.4828177128
 C         -1.4282066862        1.6592343676       -0.0836162391
 O         -0.4412133203        1.4719112635        0.9111827132
 Cl         2.5759666034        0.1653989491       -0.2940033175
 H         -0.6301915102       -0.5898795689        1.6099116230
 H          0.7620294814       -1.0242636748        0.8154670996
 H          0.0089761960       -2.1262762799        1.8243517127
 H         -1.8991963922       -2.2674722336        0.3155245785
 H         -0.4226332580       -2.6648606615       -0.5276542401
 H         -1.6850098631       -1.1588314049       -1.9450524191
 H         -0.2964287704       -0.2785837920       -1.3770331361
 H         -2.7028295963       -0.0077108538        0.3870669629
 H         -2.9412831404        0.6291103850       -1.2149134411
 H         -2.1354436363        2.3960179672        0.3180107261
 H         -0.9658550103        2.1336722626       -0.9585960896
 H          0.3799354312        1.0927738414        0.5179036702
  19
  -26.177967530000000       0.20182736509955307      !mtd9
 N         -0.1575413534       -1.3772645438        1.1299483538
 C         -0.9549866672       -1.8394830920       -0.0357848087
 C         -1.2397140496       -0.7237201436       -1.0388084413
 C         -2.1592721906        0.3812289420       -0.4835090224
 C         -1.4268078587        1.6589157129       -0.0837012078
 O         -0.4413858899        1.4714230566        0.9125667054
 Cl         2.5760428221        0.1673808702       -0.2954358412
 H          0.7622851001       -1.0254532042        0.8164094006
 H          0.0069950881       -2.1255200093        1.8212024388
 H         -0.6329910786       -0.5900668130        1.6141302122
 H         -1.9014286313       -2.2672474885        0.3158125060
 H         -0.4250331026       -2.6667915271       -0.5266415933
 H         -1.6836488880       -1.1593555294       -1.9450664865
 H         -0.2948990213       -0.2804089673       -1.3755255302
 H         -2.7030095760       -0.0070662895        0.3858436941
 H         -2.9391192803        0.6295811487       -1.2165902129
 H         -2.1340828825        2.3964547828        0.3164128022
 H         -0.9629250037        2.1325792594       -0.9582796274
 H          0.3798837579        1.0912317881        0.5205443333
  19
  -26.174846680000002        7.4256879436087929E-003 !md7
 N          0.0168197532       -0.9923890209        1.1024538697
 C         -0.9426322048       -1.5946805534        0.1444606000
 C         -1.2618100047       -0.6592104487       -1.0200612389
 C         -2.1861902934        0.5198603410       -0.6768044774
 C         -1.5141355501        1.7119301211        0.0137331370
 O         -1.3318528749        1.5406702914        1.4097188829
 Cl         2.9653315505       -0.2830071820       -0.5718823749
 H          0.1727783099       -1.5732772110        1.9430422743
 H         -0.3682617017       -0.0808929896        1.3960748169
 H          0.9320826884       -0.8074041725        0.6508716472
 H         -1.8694356394       -1.8635546493        0.6652997683
 H         -0.5273181842       -2.5422969832       -0.2243092304
 H         -1.7182356063       -1.2482701306       -1.8280843725
 H         -0.3261520280       -0.2758078561       -1.4440734004
 H         -3.0124275690        0.1682432083       -0.0488376393
 H         -2.6609143576        0.8752975957       -1.6021749349
 H         -2.1191498496        2.6176913480       -0.1292778775
 H         -0.5397759928        1.9139516341       -0.4477769666
 H         -0.9947137600        2.3690518742        1.8228306633
  19
  -26.174582810000000        5.6165604665056063E-003 !md7
 N          0.0208807003       -0.9788698292        1.0897022301
 C         -0.9388450935       -1.5872522862        0.1356779218
 C         -1.2765941489       -0.6506938210       -1.0228207929
 C         -2.2122801191        0.5161811508       -0.6674810120
 C         -1.5460002572        1.7190288316        0.0096909903
 O         -1.3325220577        1.5511409416        1.4016132177
 Cl         2.9918312296       -0.3021716931       -0.5593548470
 H          0.1804753742       -1.5568420680        1.9315948443
 H         -0.3659866961       -0.0675231019        1.3815596358
 H          0.9352870081       -0.7932889618        0.6366070922
 H         -1.8590977169       -1.8678782550        0.6618650494
 H         -0.5163235809       -2.5291031442       -0.2396865926
 H         -1.7320967446       -1.2417018894       -1.8299374762
 H         -0.3485297930       -0.2549626565       -1.4519251824
 H         -3.0234507241        0.1543480448       -0.0257703251
 H         -2.7067036200        0.8629807459       -1.5857803555
 H         -2.1684957235        2.6147898771       -0.1209160723
 H         -0.5846329072        1.9367531313       -0.4714861625
 H         -0.9982239571        2.3844247942        1.8072911861
  19
  -26.174433350000001        4.7949422233217248E-003 !md1
 N          0.0200376308       -0.9833260496        1.0942338263
 C         -0.9381242943       -1.5893407096        0.1371627939
 C         -1.2700824346       -0.6516118235       -1.0220603234
 C         -2.2047624819        0.5169152186       -0.6694689134
 C         -1.5385938033        1.7182205500        0.0106030961
 O         -1.3308427112        1.5496472715        1.4032806931
 Cl         2.9827182106       -0.2981295692       -0.5629463109
 H         -0.3674785871       -0.0700168357        1.3865589617
 H          0.9308740742       -0.7988055175        0.6451727734
 H          0.1777482052       -1.5640054765        1.9383903659
 H         -1.8606081637       -1.8679544028        0.6604858742
 H         -0.5166002139       -2.5320630593       -0.2371349776
 H         -1.7238120319       -1.2413311522       -1.8311162634
 H         -0.3397630538       -0.2574273819       -1.4476916607
 H         -3.0189321645        0.1563730972       -0.0308506546
 H         -2.6952168236        0.8650884817       -1.5893734385
 H         -2.1586684568        2.6153109036       -0.1223440041
 H         -0.5749022620        1.9341084150       -0.4667041971
 H         -0.9988470557        2.3828870318        1.8109710103
  19
  -26.174349379999999        4.3872606651990066E-003 !mtd5
 N          0.0435447808       -0.9504544152        1.1236516727
 C         -0.9377061804       -1.5563081603        0.1885110949
 C         -1.2288865917       -0.6581214538       -1.0121196836
 C         -2.1190981052        0.5587317982       -0.7235247204
 C         -1.4447114689        1.6936632114        0.0557678093
 O         -1.4276246910        1.5131809625        1.4594660081
 Cl         2.9595115150       -0.2885214609       -0.6225533668
 H          0.2149011991       -1.5279584579        1.9634411990
 H         -0.3295918862       -0.0367606476        1.4242998707
 H          0.9503475848       -0.7734521320        0.6528741842
 H         -1.8712927087       -1.7783525356        0.7189971022
 H         -0.5513710494       -2.5287954639       -0.1455661566
 H         -1.6970035900       -1.2633117259       -1.8011339705
 H         -0.2799683883       -0.3172972937       -1.4430323564
 H         -3.0182662051        0.2379381365       -0.1855494259
 H         -2.4867054116        0.9590293657       -1.6786844292
 H         -1.9325158991        2.6572604241       -0.1445687354
 H         -0.4056071146        1.8143083284       -0.2715523953
 H         -2.3487350049        1.4418957764        1.7984036736
  19
  -26.174115069999999        3.4238286210174405E-003 !mtd8
 N          0.0469852572       -0.9435849188        1.1125993828
 C         -0.9395517063       -1.5520509770        0.1846385853
 C         -1.2425604246       -0.6546929286       -1.0137453615
 C         -2.1387090619        0.5564762355       -0.7192113449
 C         -1.4650021780        1.6977408544        0.0510991097
 O         -1.4262347992        1.5173248608        1.4543080767
 Cl         2.9795288568       -0.2972952157       -0.6128825584
 H          0.2215530481       -1.5184169553        1.9535192782
 H         -0.3244766058       -0.0288657265        1.4121640307
 H          0.9523287330       -0.7686637414        0.6381301473
 H         -1.8685840370       -1.7766219987        0.7220624990
 H         -0.5531359196       -2.5235507274       -0.1521739457
 H         -1.7113574475       -1.2621397632       -1.8006310783
 H         -0.2981213131       -0.3078394916       -1.4496218023
 H         -3.0305217076        0.2305063035       -0.1721764462
 H         -2.5180944473        0.9522707741       -1.6716436647
 H         -1.9653550269        2.6563557114       -0.1420552081
 H         -0.4318644737        1.8288537358       -0.2907311039
 H         -2.3417223321        1.4366855178        1.8061392070
  19
  -26.174036919999999        3.1520766131154384E-003 !hor
 N          0.0477431915       -0.9431483556        1.1111274957
 C         -0.9388906605       -1.5521164698        0.1836197777
 C         -1.2440386221       -0.6544134996       -1.0139764003
 C         -2.1406083782        0.5561904419       -0.7180500482
 C         -1.4666032808        1.6985186853        0.0505812827
 O         -1.4273985897        1.5201812732        1.4540742010
 Cl         2.9816148804       -0.2992545074       -0.6118493667
 H          0.9503532572       -0.7686934301        0.6379143786
 H          0.2221787441       -1.5165856276        1.9505571097
 H         -0.3261888862       -0.0238568730        1.4117848934
 H         -1.8672092946       -1.7778883539        0.7217730356
 H         -0.5518576490       -2.5230631654       -0.1540964803
 H         -1.7135927776       -1.2619347135       -1.8003592335
 H         -0.3004007901       -0.3069190168       -1.4510676524
 H         -3.0312033822        0.2296782271       -0.1693597387
 H         -2.5220312879        0.9513254455       -1.6699491932
 H         -1.9670515140        2.6568659350       -0.1436625483
 H         -0.4335999463        1.8291992815       -0.2918205857
 H         -2.3427311980        1.4395416988        1.8063186254
  19
  -26.173939910000001        2.8445531673689326E-003 !mtd9
 N          0.0444668079       -0.9520661504        1.1171220331
 C         -0.9411918826       -1.5573227890        0.1861833869
 C         -1.2377263201       -0.6589295547       -1.0130336949
 C         -2.1288616662        0.5565229666       -0.7209316454
 C         -1.4520222828        1.6946691871        0.0513858134
 O         -1.4207408375        1.5154942140        1.4549612645
 Cl         2.9677994304       -0.2874202880       -0.6156645591
 H         -0.3266260835       -0.0351161509        1.4175044627
 H          0.9461218419       -0.7784635025        0.6462947315
 H          0.2175262022       -1.5299487042        1.9600446388
 H         -1.8724576844       -1.7789646251        0.7209331461
 H         -0.5569109000       -2.5300243592       -0.1496151537
 H         -1.7077277274       -1.2645195468       -1.8006307151
 H         -0.2908230409       -0.3166043277       -1.4471527161
 H         -3.0238520204        0.2348131240       -0.1765724751
 H         -2.5035486402        0.9541261506       -1.6744738344
 H         -1.9460180177        2.6559616620       -0.1448060007
 H         -0.4166159269        1.8194857456       -0.2859274624
 H         -2.3381391837        1.4367574948        1.8022148679
  19
  -26.170078790000002        4.7815220482748346E-005 !mtd1
 N          0.3277000212       -0.1623448111       -0.6979767474
 C         -0.6796620597       -1.1766462404       -0.2960590161
 C         -2.0928549611       -0.8066778508       -0.7425174973
 C         -2.7712056930        0.3033623372        0.0730491584
 C         -2.2567456417        1.7216677150       -0.1968121299
 O         -1.0733212666        2.0609854789        0.5008877055
 Cl         3.4802947611       -0.9173989695        0.5440006857
 H          1.2745281627       -0.3708147143       -0.3351908749
 H          0.0270044547        0.7485074989       -0.3179409128
 H          0.3851980036       -0.0674988575       -1.7273718594
 H         -0.6605327716       -1.3101288786        0.7921967381
 H         -0.3866691085       -2.1486991593       -0.7154057099
 H         -2.7210058029       -1.7079666983       -0.7088880391
 H         -2.0708512192       -0.5168823535       -1.7997161784
 H         -2.6781423910        0.0839905557        1.1426496296
 H         -3.8510395525        0.2780681629       -0.1295556881
 H         -3.0150717996        2.4740117718        0.0591800617
 H         -2.0557484479        1.8557332210       -1.2658968359
 H         -1.2265011177        1.9943090392        1.4707193076
