19
 energy: -26.258033989009 gnorm: 0.000281852344 xtb: 6.5.1 (fef0646)
N            1.10279527814882        0.02086261009259        0.30671861713599
C            2.56539310778852       -0.11122108519324        0.15253584537559
C            3.02810825756693        0.64544288110305       -1.08637968151601
C            4.52853621351711        0.47900741875319       -1.31154696545022
C            4.98322081761620        1.19816974363430       -2.58219468689734
O            6.35941628693066        1.02587443498346       -2.85154243644289
Cl          -0.29502888729394       -0.90373633438536       -2.25171905593178
H            0.75350007957905       -0.53583307959115        1.08977189558144
H            0.62118645482502       -0.31567850458126       -0.56622942669710
H            0.83682986004026        1.00036312766289        0.43270667031199
H            2.80836862148544       -1.16721965852219        0.03901541216926
H            3.06260462101875        0.27764395834715        1.04211748995108
H            2.79979159616429        1.70723333457468       -0.98494340300171
H            2.47996857790964        0.26765338028983       -1.95126394082130
H            4.77916649608437       -0.57871779515703       -1.40666128831582
H            5.07452988564096        0.88284894935688       -0.45629430889108
H            4.74234068289994        2.26836419632619       -2.51948667274527
H            4.46420679569744        0.78543746268367       -3.45129498992477
H            6.87134525437985        1.38112495962287       -2.11115907389188
