  16
        -24.37623738
 N          0.6314059717        1.8101063603       -0.0211897690
 C         -0.4135150918        0.8834170857       -0.0108519097
 C         -0.9382333466        0.3846202265       -1.2050764183
 C         -1.9587579308       -0.5396481856       -1.1915938262
 C         -2.4758480131       -0.9854745572        0.0103822817
 C         -1.9667570918       -0.5035196839        1.2018129907
 C         -0.9461257377        0.4206394366        1.1943770839
 Cl         2.8566780470       -0.6878433259        0.0098561884
 H          0.7682868846        2.3738193261       -0.8507804129
 H          1.9438062265        0.2764746178       -0.0022145842
 H          0.7655507613        2.3954108815        0.7937903539
 H         -0.5285669240        0.7312656190       -2.1382289125
 H         -2.3543301019       -0.9178759865       -2.1203465172
 H         -3.2742412278       -1.7096240386        0.0186145393
 H         -2.3688647238       -0.8532805778        2.1388665524
 H         -0.5426545594        0.7952085460        2.1193974173
