  24
        -28.51706402
 N         -2.2948223987       -1.7775331108        0.3216247836
 C         -0.9407235400       -1.8206304804       -0.3044823557
 C          0.0069842876       -0.7922327437        0.3001409704
 C          1.3952533490       -0.8075266694       -0.3399093578
 C          2.3440674065        0.2257638081        0.2675631310
 C          3.7332945530        0.2129105911       -0.3717929762
 C          4.6721202024        1.2429993359        0.2388176262
 Cl        -3.4673775937        1.5053466491       -0.0781143764
 H         -2.2410095999       -1.9804898279        1.3286737958
 H         -2.9429237426       -2.4542444504       -0.1049395308
 H         -2.7075404088       -0.8346088402        0.2197828754
 H         -1.0266572976       -1.6519323353       -1.3847054568
 H         -0.5139010597       -2.8252888292       -0.2010171664
 H          0.0953206159       -0.9638162431        1.3793140507
 H         -0.4311372610        0.2084770321        0.2076283188
 H          1.3052171344       -0.6353683688       -1.4192359795
 H          1.8326253169       -1.8089248604       -0.2475702363
 H          2.4338647153        0.0534604180        1.3470032175
 H          1.9057212409        1.2269203334        0.1759076534
 H          3.6368137766        0.3826891977       -1.4521526283
 H          4.1647731935       -0.7925510369       -0.2812048629
 H          4.2759934947        2.2540269361        0.1268135761
 H          5.6606516091        1.2247193708       -0.2254245366
 H          4.8087123911        1.0684446010        1.3077406316
