  24
        -28.43470691
 N          0.4459754868       -1.1734867118        1.4162079877
 C         -0.1927672055       -2.1547119822        0.4961232185
 C         -0.5818494063       -1.5520625209       -0.8578937946
 C         -1.9804104273       -0.9254970288       -0.9023968083
 C         -2.1879796936        0.2831504947        0.0134118516
 C         -1.2557617821        1.4570376972       -0.2933365227
 C         -1.5111477873        2.6585343257        0.6030131539
 Cl         2.8803132190        0.5826276366       -0.3219380085
 H         -0.2102095466       -0.4357452792        1.7109218579
 H          1.2421008086       -0.6988421015        0.9512960759
 H          0.8068205697       -1.6220003254        2.2755982839
 H         -1.0719553214       -2.6036827206        0.9739167601
 H          0.5080075721       -2.9869223978        0.3450702195
 H         -0.5189411830       -2.3298078968       -1.6326450258
 H          0.1701844118       -0.8104778973       -1.1509915226
 H         -2.7219015940       -1.6993618325       -0.6623226926
 H         -2.2092943202       -0.6237415197       -1.9334825198
 H         -2.0774778260       -0.0174000988        1.0613621415
 H         -3.2274585531        0.6299474133       -0.0612626541
 H         -1.3671318124        1.7411730248       -1.3484098781
 H         -0.2106533947        1.1367119188       -0.1967238826
 H         -2.5362260387        3.0207144506        0.4965942750
 H         -0.8429723437        3.4925592343        0.3734466839
 H         -1.3679590934        2.4038955102        1.6556202515
