24
 energy: -28.523231355887 gnorm: 0.000338398040 xtb: 6.5.1 (fef0646)
N            1.18291730999478       -0.14216269841261       -0.32826153124349
C            2.65905986810743       -0.07909013837870       -0.32930688569707
C            3.12605790541582        1.28575813499127        0.15922488830825
C            4.64855722003504        1.35246127581012        0.26046611761213
C            5.12592223119264        2.72769937749327        0.72068462905637
C            6.64667986939386        2.79846761812066        0.84083243695618
C            7.11702341421069        4.17934446133141        1.28238057231032
Cl           0.11818708993351        0.34846076340240        2.49867138002003
H            0.84434051047080       -1.05714451898560       -0.63401453091346
H            0.78835625520236        0.59003464984852       -0.92375897682035
H            0.82014126190988        0.02360437126375        0.64497347094162
H            3.03092023494956       -0.26603199682697       -1.33752840071351
H            3.03861210504304       -0.84962723199070        0.34098451144644
H            2.68401040805323        1.47662582436765        1.13910066820561
H            2.78200879262514        2.06516280638600       -0.52213882323802
H            5.09024752138055        1.12920497300423       -0.71279733730742
H            4.99967230547993        0.59842164076669        0.96751980533529
H            4.67679271625835        2.96011368385873        1.68940410629661
H            4.78815756535413        3.48690071231527        0.01163588739456
H            7.09709233713683        2.55509677503435       -0.12395396729798
H            6.98662051555062        2.05269210581707        1.56296790574940
H            6.81091243265525        4.93488283841324        0.56216545997686
H            8.20053019382876        4.20658423522268        1.36969072682578
H            6.68837993581745        4.43657033714723        2.24882788679324
