26
 energy: -37.981772135269 gnorm: 0.000262986582 xtb: 6.5.1 (fef0646)
N            2.64596703570621       -0.61084439772624        2.64551951051531
C            2.29381511996810       -1.78404878221003        1.82194232909319
C            2.84191781467594       -1.59516967760693        0.40811263243960
C            4.34552224588688       -1.56040336316130        0.40608242978291
C            5.08700986734200       -2.72932894730441        0.32505513112563
C            6.47158485966011       -2.70945156900813        0.35379601568027
C            7.14203574350670       -1.49716113218312        0.46651084399641
O            8.50182527368276       -1.35346174578107        0.50601123017543
C            9.30484013527121       -2.51501281676285        0.43804912722653
C            6.40411622014900       -0.31560436891039        0.54750627436639
C            5.02541349107364       -0.35040603690211        0.52004136177727
Cl           1.75307944545932        2.00186778670338        1.32314988978040
H            2.26195760009759       -0.67508745987157        3.59007800509394
H            2.27899131680289        0.26866690270250        2.19904487204562
H            3.66386225480213       -0.50494171096124        2.68513389410698
H            1.20921623593498       -1.87064069100135        1.78064288065163
H            2.71796943176165       -2.68249938131319        2.27207602556151
H            2.45207570729232       -0.65667450318218        0.01229955789764
H            2.48969695850668       -2.41120925809330       -0.22104209609405
H            4.58082202865594       -3.67820478557644        0.23006499448316
H            7.01384972488518       -3.63821857059541        0.28093406219664
H           10.33119957784290       -2.15932729687699        0.49630408394417
H            9.15481018490048       -3.04555744757989       -0.50621060365912
H            9.10122176392480       -3.18519864890661        1.27754297719254
H            6.93858150221669        0.61835288286604        0.62688069952659
H            4.46729845999367        0.57423501924446        0.56901387109270
