30
 energy: -34.850913317010 gnorm: 0.000417115706 xtb: 6.5.1 (fef0646)
N            2.88752063870828        1.10458022917709       -2.56477338758967
C            4.35255785994010        0.94006411455605       -2.66801998518656
C            4.94676293140518        0.42484467211520       -1.36351076787774
C            4.58901423635312       -1.02916575645165       -1.04825386381303
C            5.14421684894477       -2.05546489897201       -2.03852195826622
C            6.66871329631916       -2.06144096037935       -2.13495692265260
C            7.17669573346128       -3.19760618913931       -3.01980586088666
C            8.69862877006488       -3.18919194202031       -3.14832619644383
C            9.19903507917902       -4.29941343540222       -4.06475425595156
Cl           0.99671742795715       -1.26553583476278       -2.13296604554753
H            2.49665161472245        1.49059863070253       -3.42692970845362
H            2.64695391315321        1.71632134478828       -1.78081673173039
H            2.38655113343815        0.19842085157578       -2.39725319585692
H            4.79342291907891        1.90914847343189       -2.90457292051668
H            4.57072030690106        0.24598166326493       -3.47715714077562
H            4.59976555814788        1.04871388790733       -0.53890855835268
H            6.03033308563981        0.52316913969409       -1.41126852533255
H            3.50463781714844       -1.14914585523782       -1.01465918448770
H            4.97190198786660       -1.26821632016244       -0.05372381304127
H            4.71409760571266       -1.89388980458376       -3.02813113130392
H            4.80728796322360       -3.04434164209200       -1.71569457754281
H            7.09281957508774       -2.16858857944397       -1.13377783876128
H            7.02090491838974       -1.11656826315715       -2.55057539468990
H            6.73105570732017       -3.10809289089622       -4.01361451552804
H            6.85443701419089       -4.15566546616536       -2.60369866138817
H            9.14392988713329       -3.30807841320433       -2.15794700296226
H            9.02112926754320       -2.22335340692130       -3.54318027691886
H            8.89830024357722       -5.27313657861840       -3.68384880082759
H           10.28381883820096       -4.27840712656819       -4.13573493334563
H            8.78618782119099       -4.18272964303386       -5.06439784397029
