14
 energy: -20.077415779157 gnorm: 0.000314713332 xtb: 6.5.1 (fef0646)
N            1.11626223127152       -0.72604617555009       -0.07201946609740
C            2.52999319155236       -0.30963662258348        0.01855292913044
C            2.74795827462657        0.42510218115979        1.33959764757684
C            2.61554610267529       -0.47083893827047        2.47157084883243
C            2.50192969995147       -1.23881593064707        3.38282547412477
Cl          -0.55341832506287        1.83427334164155        0.00036474143903
H            0.92207824226487       -1.24346691404462       -0.93136866255493
H            0.50219279494672        0.12911448340303       -0.05940071684386
H            0.86662810758847       -1.29095818476087        0.74466993994694
H            2.74982193953002        0.36484772693173       -0.80765053647972
H            3.17578208923407       -1.18710687499001       -0.03731770512037
H            2.00699689098164        1.22466568708006        1.42408389607206
H            3.74196436814010        0.87358957857148        1.35930454930967
H            2.41132439230048       -1.89337335794162        4.19721706066497
