  15
        -20.48619693
 N         -2.6554385231       -0.0641658461        0.5914849749
 C         -1.8109658289        0.2610074444       -0.5940438083
 C         -0.3610890571        0.2764030986       -0.2796066522
 C          0.4325875593        1.4001435023       -0.0813455255
 C          1.7702687562        1.1030824264        0.2023952510
 C          2.0389099037       -0.2523949402        0.2332084259
 S          0.6087094300       -1.1390097191       -0.0933304142
 H         -3.6596574705       -0.0689427008        0.3574235693
 H         -2.5121408883        0.6227104240        1.3459810271
 H         -2.4178499674       -0.9929212316        0.9689287443
 H         -2.1100288120        1.2341100888       -1.0030716724
 H         -1.9992551293       -0.4715445558       -1.3892791371
 H          0.0517709330        2.4101598867       -0.1482503488
 H          2.5242434298        1.8613224421        0.3772112261
 H          2.9986036007       -0.6998310380        0.4294845165
