  15
        -20.59616339
 N         -2.6604950571        0.0189857527       -0.6067942923
 C         -1.8132093870       -0.1627824007        0.6104070420
 C         -0.3669918571       -0.2363904925        0.2931973498
 C          0.3822673439       -1.3905332094        0.1171556386
 C          1.7256787618       -1.1478923608       -0.1849563804
 C          2.0424664188        0.1943370079       -0.2487887158
 S          0.6523687434        1.1429790325        0.0727563172
 H         -2.3970828152        0.8790734489       -1.0965282245
 H         -3.6549369390        0.0760099414       -0.3663025137
 H         -2.5273939784       -0.7641576802       -1.2527524942
 H         -2.1201585716       -1.0718547472        1.1413895685
 H         -1.9851309572        0.6689183604        1.3040129679
 H         -0.0335403444       -2.3827079615        0.2108216519
 H          2.4479117367       -1.9356431951       -0.3515474013
 H          3.0132691785        0.6008825392       -0.4661828414
