  15
        -20.59616339
 N         -2.6604950571        0.0189857527       -0.6067942923
 C         -1.8132093870       -0.1627824007        0.6104070420
 C         -0.3669918571       -0.2363904925        0.2931973498
 C          0.3822673439       -1.3905332094        0.1171556386
 C          1.7256787618       -1.1478923608       -0.1849563804
 C          2.0424664188        0.1943370079       -0.2487887158
 S          0.6523687434        1.1429790325        0.0727563172
 H         -2.3970828152        0.8790734489       -1.0965282245
 H         -3.6549369390        0.0760099414       -0.3663025137
 H         -2.5273939784       -0.7641576802       -1.2527524942
 H         -2.1201585716       -1.0718547472        1.1413895685
 H         -1.9851309572        0.6689183604        1.3040129679
 H         -0.0335403444       -2.3827079615        0.2108216519
 H          2.4479117367       -1.9356431951       -0.3515474013
 H          3.0132691785        0.6008825392       -0.4661828414
  15
        -20.59604195
 N         -2.6380978907        0.0148963024        0.7181442506
 C         -1.8368364478       -0.1671395497       -0.5296776142
 C         -0.3795448295       -0.2366028978       -0.2672326615
 C          0.3676390706       -1.3875083321       -0.0640912224
 C          1.7241692279       -1.1430359304        0.1702626251
 C          2.0534033336        0.1976319135        0.1538007072
 S          0.6579861611        1.1425237388       -0.1557452559
 H         -3.6411872833        0.0645294520        0.5152031810
 H         -2.3614290772        0.8791730456        1.1929617229
 H         -2.4757600546       -0.7635527062        1.3632974814
 H         -2.0376206951        0.6630726525       -1.2177640217
 H         -2.1607748938       -1.0776995573       -1.0473076730
 H         -0.0594222824       -2.3789661910       -0.0892332051
 H          2.4466691117       -1.9285254412        0.3461812430
 H          3.0356587285        0.6050718859        0.3093432220
  15
        -20.59593851
 N         -2.6424349446       -0.0200360531        0.7179619738
 C         -1.8364951812       -0.1427987877       -0.5342556894
 C         -0.3800688561       -0.2234765909       -0.2705982814
 C          0.3593009144       -1.3812205559       -0.0782819730
 C          1.7170882659       -1.1479463084        0.1602423469
 C          2.0550105908        0.1906658406        0.1578248953
 S          0.6661821834        1.1477361693       -0.1437021989
 H         -3.6448014227        0.0394444632        0.5140476906
 H         -2.3667257884        0.8205628642        1.2338994619
 H         -2.4832469702       -0.8284814694        1.3260210340
 H         -2.0359128362        0.7185200223       -1.1833344511
 H         -2.1567236500       -1.0282302702       -1.0957455399
 H         -0.0740796082       -2.3695400410       -0.1158348889
 H          2.4343731434       -1.9396752056        0.3293922558
 H          3.0395893430        0.5902637762        0.3189229178
  15
        -20.59585371
 N         -2.6709305230       -0.0527768918       -0.6139668999
 C         -1.8144237038       -0.1189928835        0.6086358165
 C         -0.3697238663       -0.2106462395        0.2896677297
 C          0.3566431291       -1.3753103971        0.0901961784
 C          1.7048841994       -1.1533994635       -0.2061293651
 C          2.0484899220        0.1832767463       -0.2417892185
 S          0.6766819430        1.1527726682        0.0961422082
 H         -2.5340753089       -0.8874645556       -1.1911381868
 H         -2.4194733930        0.7642928541       -1.1780451681
 H         -3.6644023531        0.0140933268       -0.3722178310
 H         -2.1094802231       -0.9791369041        1.2215250753
 H         -1.9895165150        0.7699765570        1.2263216967
 H         -0.0790889559       -2.3606030496        0.1627613322
 H          2.4111527667       -1.9520349431       -0.3886686610
 H          3.0278830222        0.5745526649       -0.4484806163
