  25
        -37.08614403
 N         -2.9856078021        1.4174070994        0.6380077967
 C         -2.0635669647        2.0303917158       -0.3563745439
 C         -0.6562132759        1.5386619690       -0.2186889339
 C          0.4126795516        2.4477662390       -0.1039914554
 C          1.7005745137        2.0106349930        0.0138409327
 C         -0.3884959380        0.1953442399       -0.2125448318
 C          0.9305706089       -0.2932483733       -0.0919274054
 C          1.9951695755        0.6297044384        0.0231209976
 C          3.3147785367        0.1390548715        0.1443719543
 C          3.5591192142       -1.2040168272        0.1508525531
 C          2.5041149845       -2.1176760875        0.0375788654
 C          1.2180352629       -1.6764215208       -0.0811154478
 Cl        -3.0412370116       -2.0451811632       -0.0480020573
 H         -2.6448358160        1.5772477571        1.5991292148
 H         -3.0502621112        0.3911726934        0.5008762630
 H         -3.9424625444        1.8014045892        0.5735113274
 H         -2.0830216648        3.1213051906       -0.2505087023
 H         -2.4196098341        1.8240184320       -1.3725469133
 H          0.2009681231        3.5045212742       -0.1110383840
 H          2.5097024501        2.7170501172        0.1010934369
 H         -1.1977662125       -0.5101252610       -0.2922226098
 H          4.1269640964        0.8417892389        0.2322273622
 H          4.5706264671       -1.5671283886        0.2440623036
 H          2.7122426492       -3.1761277171        0.0447714701
 H          0.4043790094       -2.3779290843       -0.1664630496
