  15
        -19.02446708
 N          0.5803454182       -1.3597798894       -0.5313982120
 C          1.5124108193       -0.9243979873        0.5493764891
 C          1.6246412481        0.5950235422        0.6528794842
 C          2.2574257680        1.2308920341       -0.5754666898
 Cl        -2.4778607621        0.2605728861        0.0220295669
 H         -0.3504073206       -0.9269974684       -0.4008866042
 H          0.4537139987       -2.3818387905       -0.5465343825
 H          0.9229583147       -1.0739827304       -1.4587895524
 H          2.5045948494       -1.3578369691        0.3764861508
 H          1.1739614752       -1.3423386566        1.5060966715
 H          2.2020898194        0.8645283733        1.5477713801
 H          0.6259275843        1.0183180160        0.8196299147
 H          3.2510897511        0.8207780554       -0.7649050019
 H          2.3651925761        2.3124910308       -0.4673259336
 H          1.6596894979        1.0546861495       -1.4709979291
