  15
        -19.02446708
 N          0.5803454182       -1.3597798894       -0.5313982120
 C          1.5124108193       -0.9243979873        0.5493764891
 C          1.6246412481        0.5950235422        0.6528794842
 C          2.2574257680        1.2308920341       -0.5754666898
 Cl        -2.4778607621        0.2605728861        0.0220295669
 H         -0.3504073206       -0.9269974684       -0.4008866042
 H          0.4537139987       -2.3818387905       -0.5465343825
 H          0.9229583147       -1.0739827304       -1.4587895524
 H          2.5045948494       -1.3578369691        0.3764861508
 H          1.1739614752       -1.3423386566        1.5060966715
 H          2.2020898194        0.8645283733        1.5477713801
 H          0.6259275843        1.0183180160        0.8196299147
 H          3.2510897511        0.8207780554       -0.7649050019
 H          2.3651925761        2.3124910308       -0.4673259336
 H          1.6596894979        1.0546861495       -1.4709979291
  15
        -19.02426467
 N          0.4162522249       -1.6089675187       -0.2242846438
 C          1.5072986826       -0.7493019179        0.3216927521
 C          1.5995449837        0.5933872681       -0.3948326154
 C          2.7030877955        1.4828696275        0.1592092179
 Cl        -2.5763216086        0.2043049579        0.0685480753
 H         -0.4958643291       -1.1270821608       -0.1472179329
 H          0.3422375355       -2.5064949515        0.2746587974
 H          0.5715020309       -1.8115922731       -1.2209413877
 H          2.4668362741       -1.2751186638        0.2493770752
 H          1.3476753352       -0.5843881135        1.3940137849
 H          0.6308943348        1.1049981396       -0.3284131955
 H          1.7540112951        0.4206958089       -1.4674463313
 H          2.5459204331        1.6941884728        1.2185503574
 H          2.7587989666        2.4413110407       -0.3615205352
 H          3.6796580969        1.0035833398        0.0689411426
  15
        -19.02400619
 N          0.4594112791       -1.5814285558        0.4871860668
 C          1.7293771995       -1.1019742413       -0.1327631446
 C          2.1659545035        0.2641302668        0.3919148870
 C          1.2084526269        1.3829667735        0.0113990679
 Cl        -2.2759483074        0.5040755409       -0.3408143921
 H          0.5403098027       -1.6107891139        1.5153494053
 H          0.2052718201       -2.5257138968        0.1641730474
 H         -0.3274585773       -0.9549382219        0.2581804607
 H          1.6122170915       -1.0577921617       -1.2220909095
 H          2.5187495387       -1.8432996857        0.0456480208
 H          3.1734387853        0.4988025358        0.0219232592
 H          2.2675781803        0.2144892222        1.4834147440
 H          1.5583124040        2.3578964014        0.3583906494
 H          0.2178043835        1.2250959754        0.4400205427
 H          1.0850572482        1.4461599119       -1.0713215720
  15
        -19.02391186
 N          0.5293166840       -1.6258493219       -0.1751388805
 C          1.6413700083       -1.0480675406        0.6350816320
 C          2.2032335768        0.2397906967        0.0369280689
 C          1.1993888782        1.3824619688        0.0308252169
 Cl        -2.2854429080        0.5138119589       -0.1956887381
 H          0.8298394314       -1.7900746302       -1.1484186196
 H         -0.2799979874       -0.9869387096       -0.2058217306
 H          0.1988476853       -2.5226505120        0.2083048390
 H          2.4389067738       -1.7952234781        0.7359860940
 H          1.2902608939       -0.8573288859        1.6561881724
 H          2.5485681808        0.0408817927       -0.9854913383
 H          3.1038752888        0.5424971427        0.5884904689
 H          0.8321929631        1.5911119960        1.0373666096
 H          0.3311950912        1.1491942962       -0.5871937876
 H          1.6326277241        2.3069423225       -0.3577295969
  15
        -19.02363181
 N          0.4298427514       -0.3784590632       -0.5293933196
 C          1.1398252199        0.1516353927        0.6710767856
 C          2.6589074061        0.1319045420        0.5166386332
 C          3.1604801855        1.0807739275       -0.5613854103
 Cl        -3.0503205554       -0.3892133036        0.0208043433
 H         -0.5970923247       -0.3949699275       -0.3928720310
 H          0.7327759045       -1.3390574658       -0.7415143043
 H          0.6211561862        0.1965835948       -1.3612588503
 H          0.8422397824       -0.4324886786        1.5512924847
 H          0.8034581742        1.1753097789        0.8741281110
 H          2.9844877633       -0.8921433204        0.2943092990
 H          3.1326784428        0.3800352797        1.4762969545
 H          4.2506381806        1.0819608683       -0.6311824502
 H          2.8447394575        2.1065024393       -0.3625586585
 H          2.7748689299        0.8099709868       -1.5453871633
  15
        -19.02355114
 N          0.2158648118        0.7269225765        0.1884536452
 C          1.2348359744       -0.3549415869        0.3224268272
 C          2.6445503322        0.1845378920        0.5538617338
 C          3.1920851971        0.9538307799       -0.6387618935
 Cl        -2.9933120440       -0.6847872678       -0.1666783067
 H          0.4055489736        1.3223726610       -0.6328826742
 H          0.2150077102        1.3361325803        1.0181847036
 H         -0.7374213861        0.3434918849        0.0796043731
 H          1.2234783628       -0.9833353175       -0.5760635922
 H          0.9458721740       -1.0200901359        1.1462088949
 H          3.3226736447       -0.6435884143        0.8015893490
 H          2.6420008932        0.8267072627        1.4436429698
 H          2.5852020343        1.8324477416       -0.8624082042
 H          3.2048270985        0.3334887103       -1.5367177016
 H          4.2133422971        1.3018757897       -0.4677247117
  15
        -19.02337130
 N          0.3580225477       -0.9636566396        0.0410732783
 C          1.1204552582        0.3186347190       -0.0075254795
 C          2.6292135429        0.1011238260        0.0226663511
 C          3.4134613051        1.4043345609       -0.0296315390
 Cl        -3.1036706656       -0.3002758007       -0.0130978617
 H         -0.6650575267       -0.8035930136        0.0230950113
 H          0.5778077023       -1.4902018767        0.8974115239
 H          0.5957002433       -1.5639897863       -0.7601353542
 H          0.8226576789        0.9588758289        0.8314777688
 H          0.8459155012        0.8788056040       -0.9093811789
 H          2.9174605126       -0.5485060628       -0.8134347927
 H          2.8947168841       -0.4651275233        0.9243633894
 H          3.1880443287        1.9650746507       -0.9386459493
 H          4.4923626762        1.2359388791       -0.0073554193
 H          3.1649648552        2.0493570161        0.8152151916
  15
        -19.01717012
 N          1.1749007102       -1.8191669572       -0.5858430295
 C          1.0578773470       -0.9771134473        0.6408630256
 C          1.8841472355        0.3046596645        0.5603229390
 C          1.3862904098        1.2696877170       -0.5049923649
 Cl        -2.3162493754        0.6004630571        0.0186005452
 H          0.6434601495       -2.6998250405       -0.5006654023
 H          2.1573527489       -2.0611296710       -0.7704747428
 H          0.8202594329       -1.3215630982       -1.4131693167
 H          1.3638633461       -1.5683906981        1.5133978301
 H          0.0049658705       -0.7258957656        0.8150010047
 H          2.9328130929        0.0446625708        0.3684313668
 H          1.8885941591        0.8052396296        1.5382945038
 H          1.4439376186        0.8312803127       -1.5023647331
 H          1.9678868625        2.1941197164       -0.5244417428
 H          0.3438038722        1.5438001594       -0.3333141505
  15
        -19.01713587
 N          1.0028144840       -1.7716382926       -0.5562971631
 C          1.1278454419       -0.9639893816        0.6925800127
 C          1.9739855817        0.2930896006        0.5026174525
 C          1.3370404932        1.3050748861       -0.4376135806
 Cl        -2.2763446841        0.5619840530       -0.0217334756
 H          1.9322257538       -2.0367844162       -0.9163709222
 H          0.5269166828       -1.2383832359       -1.2962016429
 H          0.4658639449       -2.6365481803       -0.4033302433
 H          1.5571085263       -1.5907883001        1.4846280995
 H          0.1298862648       -0.6852078979        1.0512022188
 H          2.9644356396        0.0063618802        0.1273283685
 H          2.1634026545        0.7634714025        1.4772299441
 H          1.2064701421        0.8949260502       -1.4401070341
 H          1.9405593983        2.2103384412       -0.5349157680
 H          0.3503972550        1.6076913999       -0.0821901281
  15
        -19.01713218
 N          1.0450906134       -1.7838494249       -0.5653903130
 C          1.1104109558       -0.9660821188        0.6814658207
 C          1.9546124674        0.2960171315        0.5181331678
 C          1.3501216392        1.2966953951       -0.4550647367
 Cl        -2.2875605192        0.5710591306       -0.0117085199
 H          1.9910705530       -2.0434787424       -0.8839371079
 H          0.5964468149       -1.2601962927       -1.3287668165
 H          0.5094845199       -2.6522315372       -0.4283600275
 H          1.5098288428       -1.5836487987        1.4960590432
 H          0.0959926886       -0.6923293531        0.9948918060
 H          2.9619142197        0.0141309627        0.1865135178
 H          2.0997633333        0.7744735101        1.4964124262
 H          1.9513365442        2.2052834296       -0.5346707716
 H          0.3478532291        1.5951071893       -0.1427018181
 H          1.2633308331        0.8783560034       -1.4589190156
  15
        -19.01568662
 N          1.3670375140       -2.3150152903       -0.1772915445
 C          0.9678504510       -0.9562832855        0.2956283201
 C          1.8081056735        0.1499997438       -0.3327634484
 C          1.4049919801        1.5386280744        0.1419291205
 Cl        -2.3502670623        0.7769024632        0.0391368225
 H          0.7916386898       -3.0567683904        0.2501989215
 H          2.3505571190       -2.5071519231        0.0522781607
 H          1.2693890540       -2.3893968911       -1.1979684250
 H          1.0471378160       -0.9050536085        1.3881750178
 H         -0.0923153184       -0.7841896213        0.0752141620
 H          1.7306845124        0.0860309565       -1.4255095339
 H          2.8677809210       -0.0326052260       -0.1138010359
 H          0.3633975276        1.7534591682       -0.1037966149
 H          2.0165811164        2.3217449670       -0.3115019231
 H          1.5047032076        1.6306201768        1.2250593899
  15
        -19.01525089
 N          1.1797153580       -2.2914328494       -0.2664339928
 C          1.0931989611       -0.9651333566        0.4139294825
 C          1.5410998591        0.1817311276       -0.4855025622
 C          1.4634722853        1.5363898139        0.2037385066
 Cl        -2.2294514973        0.7574999095        0.0690890355
 H          0.8702565900       -3.0609958417        0.3468806422
 H          2.1453608558       -2.4897767040       -0.5582555866
 H          0.5941512780       -2.3068762094       -1.1112622994
 H          1.6998933867       -0.9762496720        1.3273271367
 H          0.0654199776       -0.7883747513        0.7527869559
 H          0.9309732314        0.1850669089       -1.3976143931
 H          2.5648199779       -0.0090405079       -0.8315686762
 H          2.0941193212        1.5636003978        1.0942961804
 H          0.4444521982        1.7584627442        0.5256057282
 H          1.7848145984        2.3496368725       -0.4507966515
  15
        -19.01516571
 N          1.1757630044       -2.2921255231       -0.2684118351
 C          1.1005080745       -0.9674644077        0.4165117380
 C          1.5296935652        0.1821002347       -0.4885708381
 C          1.4623531276        1.5351113524        0.2049922660
 Cl        -2.2254644323        0.7591521631        0.0696955364
 H          0.8787415226       -3.0635728186        0.3487144132
 H          2.1359156294       -2.4886449960       -0.5790018323
 H          0.5743246013       -2.3063068863       -1.1020491622
 H          1.7246063938       -0.9797383278        1.3180824464
 H          0.0791456305       -0.7928430958        0.7753162287
 H          0.9028541444        0.1863041778       -1.3892709595
 H          2.5472023634       -0.0060665705       -0.8538494463
 H          0.4487831879        1.7550526719        0.5452574062
 H          1.7710236300        2.3502078931       -0.4532025646
 H          2.1085067090        1.5611844541        1.0844056357
  15
        -19.01499848
 N          1.1784634300       -2.2966063486       -0.2718378946
 C          1.1168208430       -0.9749765728        0.4202952847
 C          1.5068841700        0.1808208569       -0.4944875233
 C          1.4573202079        1.5305168634        0.2069925837
 Cl        -2.2221736209        0.7666944802        0.0713926664
 H          2.1311777140       -2.4848980938       -0.6175982686
 H          0.5479224118       -2.3128446927       -1.0836857791
 H          0.9103824430       -3.0701292180        0.3511818986
 H          1.7713097017       -0.9862201332        1.3000786833
 H          0.1069971761       -0.8089449798        0.8141696188
 H          0.8480558062        0.1852659393       -1.3720700869
 H          2.5115888242       -0.0000831996       -0.8969583487
 H          2.1351527800        1.5567111743        1.0622318227
 H          0.4557407942        1.7430081972        0.5851753970
 H          1.7368898586        2.3501986944       -0.4586250560
  15
        -19.01499522
 N          1.3277274632       -1.7320280134       -0.7163802064
 C          0.9872413131       -0.8031398845        0.4011992880
 C          1.1037881757        0.6671670482        0.0053455764
 C          2.5322372609        1.0907911288       -0.3009886064
 Cl        -2.5382894455        0.4220055253        0.3094765108
 H          1.2007325356       -2.7206074199       -0.4484638878
 H          2.3056184270       -1.6140358069       -1.0121238154
 H          0.7340646692       -1.5497425147       -1.5362041574
 H          1.6388151417       -1.0057429885        1.2595003682
 H         -0.0301435743       -1.0194831583        0.7512389879
 H          0.6945291443        1.3000426481        0.8047146810
 H          0.4626285470        0.8571144423       -0.8647081595
 H          2.9419056535        0.5380313944       -1.1477077157
 H          3.1895109336        0.9084995817        0.5511495816
 H          2.6008428591        2.1532423804       -0.5456926537
  15
        -19.01495094
 N          1.1564362099       -2.2897922483       -0.2741011374
 C          1.1193958082       -0.9697370740        0.4226690350
 C          1.4951348470        0.1859690864       -0.4982313911
 C          1.4726539701        1.5338438676        0.2080913236
 Cl        -2.2144063033        0.7579564137        0.0724819614
 H          0.8974092652       -3.0656149832        0.3544983415
 H          2.0971231848       -2.4824362886       -0.6415216763
 H          0.5071745855       -2.2999945290       -1.0711765746
 H          1.7942374424       -0.9873808532        1.2868471648
 H          0.1202067297       -0.7984910054        0.8407009245
 H          0.8148023549        0.1977446069       -1.3591925062
 H          2.4882234923       -0.0009597249       -0.9259903380
 H          0.4827964438        1.7512999103        0.6135147797
 H          1.7394702483        2.3537197798       -0.4623615870
 H          2.1732671116        1.5534078130        1.0449513349
