15
 energy: -16.134268193303 gnorm: 0.000755534827 xtb: 6.5.1 (fef0646)
N            1.03886144050285       -0.02549729567611        0.19076802829605
C            2.53172006142939       -0.01572646071149        0.02987825215935
C            3.26824850643769       -1.11507740613890        0.79893863357288
C            4.19442770575117       -0.04192262605715        1.40018516349107
C            3.26131750190949        1.05181646076010        0.84887329890825
H            0.63390174341471       -0.86886479295710       -0.23491978583062
H            0.61883407124984        0.80442732857137       -0.24679804023276
H            0.80922235142657       -0.02007336502405        1.19400892743630
H            2.75494119024316        0.00910938148707       -1.03673286390465
H            3.74815616744311       -1.87699832089306        0.19190085352311
H            2.64816341261618       -1.60474180637339        1.54702011957595
H            5.17841844445692       -0.02817705409455        0.94358612584820
H            4.30861199744176       -0.06642580852399        2.47881543161821
H            3.73616358258026        1.84442090916140        0.27821645262294
H            2.63829182309688        1.50227085646984        1.61895940291570
