24
 energy: -25.767147788077 gnorm: 0.000321176075 xtb: 6.5.1 (fef0646)
N            3.31542110623527       -0.55526391321097       -1.18566209805452
C            2.52329264228468       -0.07644192606949       -0.02748486002926
C            2.92313681879449       -0.78444234194784        1.26877653848722
C            2.56668713983385       -2.27396820907857        1.24066062226937
C            2.94466304909485       -2.94196120332923        2.56169847451319
C            2.24008693076026       -2.26266574051090        3.73187088754235
C            2.58794038674838       -0.77720282472198        3.76608311497945
C            2.21204806324024       -0.10978667996798        2.44592075307705
H            3.04674995857693       -0.05198705913714       -2.03846483583577
H            3.15269098085238       -1.55800055879084       -1.32962621307492
H            4.31719701710839       -0.40904120438797       -1.01467462819196
H            1.46520941968633       -0.25224941577153       -0.22193455545969
H            2.67957836889467        0.99611581551056        0.08780610645523
H            4.00128362207178       -0.68333576572450        1.42683290311925
H            3.09281275934215       -2.79557201868898        0.44022544985098
H            1.49252957275683       -2.39010668502024        1.08454321157007
H            4.02519600413628       -2.87944544430390        2.71122516727458
H            2.67567550735088       -3.99981225127194        2.53366715669590
H            2.53388820258288       -2.73631474945262        4.67088038162305
H            1.15888924447903       -2.38124580695921        3.62788252118481
H            3.65918538936240       -0.66157274721598        3.94710034398711
H            2.06088216743018       -0.29158346983619        4.58967134010005
H            2.47675420954141        0.94798278767014        2.48917552435704
H            1.13119143883558       -0.18046858778277        2.30960669355931
