28
 energy: -40.920185400046 gnorm: 0.000570882336 xtb: 6.5.1 (fef0646)
N            1.18819305207131       -0.43030582762163       -0.11673182370682
C            2.60871508756894       -0.28522708118582        0.21526281431293
C            2.87975832811726        0.85683660277205        1.20658064460695
C            1.89920441119653        0.84882870004225        2.38095640933713
C            2.23846390038245        1.95597142469440        3.37363088634598
C            2.19308495495399        3.31544040823318        2.67949589807423
C            2.55531761403001        4.43382367861019        3.64158816697289
O            2.19803640064314        5.66671152859321        3.23164824066674
O            3.13781076866772        4.27888292285037        4.67497410614308
C            3.19032078123563        3.33037328574823        1.51182303260228
C            2.85397407996450        2.22240732395896        0.51841118575138
Cl          -0.50177030284699        1.84506282776124       -0.80051209572147
H            1.07329929138445       -1.06542011170041       -0.89937150737851
H            0.37799770272670        0.80626202949015       -0.48524824765454
H            0.68017341461045       -0.80881214686446        0.67614058562040
H            3.14537501889139       -0.07844416684487       -0.71311508699275
H            3.00559850442053       -1.22054741110846        0.63309734333853
H            3.88965852126531        0.69749310504551        1.60174535744761
H            1.93211455155544       -0.11784078818389        2.88860248670314
H            0.88718937539060        1.01442142161631        2.00826080692566
H            3.23477393122797        1.80510815493997        3.79159154217173
H            1.52921617635111        1.94482740817765        4.20269219423562
H            1.18319277303974        3.48712515551724        2.28714952114146
H            1.72930348517286        5.65186174894098        2.38645605182112
H            4.19720749704138        3.18104420768335        1.90907076711550
H            3.17317404322455        4.29681656425325        1.00182150770886
H            3.58153390164999        2.23732421770734       -0.29523610123234
H            1.86681273606484        2.39933481687570        0.09395531364478
