  13
        -15.04548822
 N         -1.6824033335       -0.8172664048        0.1544935580
 C         -1.1788440412        0.4734287387       -0.4016500118
 C          0.1132423742        0.9530193034        0.2674376408
 C          1.2364970764        0.1130920112        0.0600371726
 C          2.2102918489       -0.5859956234       -0.1144783512
 H         -2.5453159574       -1.1253705774       -0.3186622528
 H         -1.8940100146       -0.7326265427        1.1593972825
 H         -0.9830044042       -1.5679331881        0.0452087347
 H         -1.9656862705        1.2334065792       -0.3003120123
 H         -1.0105773911        0.3573457665       -1.4804046975
 H         -0.0512936534        1.0541107409        1.3474797893
 H          0.3704227601        1.9605014831       -0.0867471220
 H          3.0834123575       -1.1852054639       -0.2647861274
  13
        -15.04165936
 N         -2.3399841144        0.0113807962        0.0686492602
 C         -0.9488556306       -0.3865423398       -0.3035265322
 C          0.1269865841        0.4557577611        0.3846817525
 C          1.4599561640        0.1025152013        0.0505804283
 C          2.6026423391       -0.1882065561       -0.2274767815
 H         -3.0426061181       -0.5726710123       -0.4089049429
 H         -2.5286974564        0.9917768669       -0.1856587258
 H         -2.4975784166       -0.0840896062        1.0840282746
 H         -0.8310219005       -0.3143662633       -1.3925227252
 H         -0.7979796855       -1.4462336857       -0.0591734827
 H          0.0076910967        0.3842508672        1.4729572876
 H         -0.0262442366        1.5145740217        0.1425797896
 H          3.6156866335       -0.4350577981       -0.4663849942
