  13
  -15.045488219999999       0.16755774377014473      !mtd2
 N         -1.6824033335       -0.8172664048        0.1544935580
 C         -1.1788440412        0.4734287387       -0.4016500118
 C          0.1132423742        0.9530193034        0.2674376408
 C          1.2364970764        0.1130920112        0.0600371726
 C          2.2102918489       -0.5859956234       -0.1144783512
 H         -2.5453159574       -1.1253705774       -0.3186622528
 H         -1.8940100146       -0.7326265427        1.1593972825
 H         -0.9830044042       -1.5679331881        0.0452087347
 H         -1.9656862705        1.2334065792       -0.3003120123
 H         -1.0105773911        0.3573457665       -1.4804046975
 H         -0.0512936534        1.0541107409        1.3474797893
 H          0.3704227601        1.9605014831       -0.0867471220
 H          3.0834123575       -1.1852054639       -0.2647861274
  13
  -15.045485050000000       0.16699661673433408      !mtd4
 N         -1.6822699784       -0.8173128600        0.1544330464
 C         -1.1788776759        0.4734891473       -0.4016002097
 C          0.1132822524        0.9530753812        0.2673329260
 C          1.2364242131        0.1129583150        0.0600234994
 C          2.2103453297       -0.5859891706       -0.1144770337
 H         -0.9838713183       -1.5664206616        0.0453780908
 H         -2.5451531659       -1.1256459084       -0.3189417117
 H         -1.8944605069       -0.7326318645        1.1609434607
 H         -1.9657781472        1.2333626332       -0.3000118947
 H         -1.0107641646        0.3576108842       -1.4803992257
 H         -0.0511803509        1.0544039808        1.3473630835
 H          0.3705645072        1.9604434870       -0.0870998521
 H          3.0828939245       -1.1861199796       -0.2644158053
  13
  -15.045473890000000       0.16503607703626522      !mtd6
 N         -1.6809561894       -0.8142691744       -0.1906672541
 C         -1.1846678097        0.4673664492        0.3923500936
 C          0.1169806254        0.9563535675       -0.2507593592
 C          1.2369549873        0.1126670654       -0.0406301287
 C          2.2099591543       -0.5870071162        0.1358538684
 H         -1.8768404626       -0.7144201809       -1.1971830234
 H         -2.5516117373       -1.1281990245        0.2644470683
 H         -0.9842945171       -1.5674791199       -0.0817309858
 H         -1.0318603503        0.3346496981        1.4712790771
 H         -1.9698427380        1.2294096058        0.2915498433
 H          0.3695754576        1.9581921265        0.1229060504
 H         -0.0320450951        1.0744121553       -1.3311059394
 H          3.0841166566       -1.1843613950        0.2874402315
  13
  -15.045471180000000       0.16456347971386143      !mtd2
 N         -1.6829804021       -0.8170473746        0.1546076680
 C         -1.1787712281        0.4732729697       -0.4017637292
 C          0.1133272750        0.9526620900        0.2674849460
 C          1.2365534045        0.1127064480        0.0600443191
 C          2.2109084526       -0.5855936806       -0.1145313671
 H         -1.8950628242       -0.7319675189        1.1592335302
 H         -0.9848150441       -1.5666717252        0.0461178533
 H         -2.5472992320       -1.1256927486       -0.3196669637
 H         -1.9654157291        1.2335090792       -0.3009479025
 H         -1.0102538029        0.3567358708       -1.4804239036
 H         -0.0512748140        1.0536159233        1.3475243539
 H          0.3705769116        1.9601829013       -0.0865236481
 H          3.0856127488       -1.1826088847       -0.2643874589
  13
  -15.045467060000000       0.16384758368789529      !mtd4
 N         -1.6812823954       -0.8139858308       -0.1911011075
 C         -1.1840484309        0.4666640778        0.3932251925
 C          0.1168902273        0.9563487261       -0.2509471335
 C          1.2374271473        0.1134201036       -0.0410027400
 C          2.2096269197       -0.5872599218        0.1361013459
 H         -2.5518803548       -1.1278832898        0.2638083855
 H         -0.9860751264       -1.5664495720       -0.0833186937
 H         -1.8778025639       -0.7127307040       -1.1992582584
 H         -1.0298607466        0.3323923680        1.4717667485
 H         -1.9691808536        1.2290342742        0.2945184822
 H          0.3690208732        1.9586046530        0.1219377727
 H         -0.0330570173        1.0738860114       -1.3312041348
 H          3.0825950048       -1.1861209259        0.2886816944
  13
  -15.045463860000000       0.16329369747128647      !mtd3
 N         -1.6810235873       -0.8140943967       -0.1911035551
 C         -1.1841002026        0.4667411248        0.3930562304
 C          0.1169086004        0.9565087751       -0.2508923762
 C          1.2374419293        0.1135644935       -0.0409876384
 C          2.2094160073       -0.5874262522        0.1360282055
 H         -0.9855195671       -1.5661318585       -0.0836863717
 H         -1.8775676944       -0.7130125181       -1.1975481663
 H         -2.5528695040       -1.1289703766        0.2649108938
 H         -1.0301413161        0.3326476537        1.4716463142
 H         -1.9693191533        1.2289821057        0.2940490877
 H          0.3690434206        1.9586707169        0.1222374787
 H         -0.0328694529        1.0741433974       -1.3311616042
 H          3.0821411134       -1.1866515518        0.2885709811
  13
  -15.041659360000001        2.9143538459083813E-003 !mtd1
 N         -2.3399841144        0.0113807962        0.0686492602
 C         -0.9488556306       -0.3865423398       -0.3035265322
 C          0.1269865841        0.4557577611        0.3846817525
 C          1.4599561640        0.1025152013        0.0505804283
 C          2.6026423391       -0.1882065561       -0.2274767815
 H         -3.0426061181       -0.5726710123       -0.4089049429
 H         -2.5286974564        0.9917768669       -0.1856587258
 H         -2.4975784166       -0.0840896062        1.0840282746
 H         -0.8310219005       -0.3143662633       -1.3925227252
 H         -0.7979796855       -1.4462336857       -0.0591734827
 H          0.0076910967        0.3842508672        1.4729572876
 H         -0.0262442366        1.5145740217        0.1425797896
 H          3.6156866335       -0.4350577981       -0.4663849942
  13
  -15.041654810000001        2.9003555806434633E-003 !mtd1
 N         -2.3400463688        0.0119922467        0.0683536607
 C         -0.9490057674       -0.3870602535       -0.3029206544
 C          0.1270452589        0.4554466497        0.3847053134
 C          1.4599308517        0.1025020022        0.0499632677
 C          2.6029228683       -0.1880601370       -0.2270077209
 H         -2.4976750616       -0.0819140211        1.0820144728
 H         -3.0429094505       -0.5722784453       -0.4089096809
 H         -2.5288493024        0.9936916186       -0.1877401044
 H         -0.8308688733       -0.3159920702       -1.3919429910
 H         -0.7986962122       -1.4465765235       -0.0574529090
 H          0.0082799768        0.3840848092        1.4730579908
 H         -0.0264697744        1.5141917719        0.1424779780
 H          3.6153523159       -0.4372292140       -0.4662123976
  13
  -15.041651460000001        2.8900921596608266E-003 !mtd6
 N         -2.3399362314        0.0115574608        0.0683087459
 C         -0.9487382297       -0.3869767460       -0.3029192728
 C          0.1269903399        0.4560399704        0.3845984548
 C          1.4599878613        0.1030506369        0.0503765821
 C          2.6025399584       -0.1885686474       -0.2272946246
 H         -2.5287965597        0.9913652803       -0.1876277017
 H         -2.4975201402       -0.0821691509        1.0821467633
 H         -3.0438136461       -0.5740031649       -0.4095443297
 H         -0.8306064234       -0.3160579330       -1.3919558868
 H         -0.7980625738       -1.4464021547       -0.0572710081
 H          0.0079393149        0.3851772090        1.4729515943
 H         -0.0266615546        1.5146436872        0.1418642897
 H          3.6155045913       -0.4370774844       -0.4648966483
