  21
  -25.725682450000001        5.5664811205499813E-002 !mtd4
 N         -2.3074008080       -0.2054437953       -1.1883733398
 C         -1.6626218788        0.4187245857        0.0177048259
 C         -2.3157387522       -0.0611103388        1.3085502955
 C         -0.1686974761        0.1933028401        0.0144975135
 C          0.7147157597        1.2773622622       -0.0351830794
 C          2.0910137344        1.0748728400       -0.0445292329
 C          2.6054759342       -0.2152917295       -0.0046319582
 C          1.7406358357       -1.3019860529        0.0436242518
 C          0.3643788841       -1.0984391056        0.0521450683
 H         -1.8686184201        0.1281906962       -2.0585727163
 H         -3.3126657122        0.0158772585       -1.2366489295
 H         -2.2161887718       -1.2302215111       -1.1667726364
 H         -1.8274398179        1.5066203320       -0.0624353036
 H         -2.2003796430       -1.1376958573        1.4246144451
 H         -3.3843477863        0.1550490167        1.3182911825
 H         -1.8689920111        0.4141288539        2.1822533288
 H          0.3233250257        2.2798814852       -0.0676977008
 H          2.7599618238        1.9197023416       -0.0832756835
 H          3.6724877161       -0.3727304120       -0.0115623245
 H          2.1378283685       -2.3039223202        0.0744183964
 H         -0.2990409921       -1.9451703836        0.0884026152
  21
  -25.725682240000001        5.5652442694469832E-002 !mtd2
 N         -2.3076396139       -0.2068983880       -1.1879679827
 C         -1.6626273366        0.4187160651        0.0172448421
 C         -2.3154956057       -0.0595724902        1.3087823795
 C         -0.1687018194        0.1933094620        0.0141479333
 C          0.7147177021        1.2774116893       -0.0344838586
 C          2.0910193566        1.0749368785       -0.0435656666
 C          2.6054792523       -0.2152526993       -0.0044385435
 C          1.7406340420       -1.3019868796        0.0428155168
 C          0.3643736711       -1.0984519009        0.0511005644
 H         -2.2166647722       -1.2317227666       -1.1650688028
 H         -1.8688125429        0.1255936033       -2.0588088078
 H         -3.3126241820        0.0145129220       -1.2363988770
 H         -1.8274579180        1.5065127746       -0.0642128682
 H         -1.8687433404        0.4169165350        2.1818381050
 H         -2.1998217157       -1.1360815909        1.4262451643
 H         -3.3840213901        0.1563204077        1.3183597173
 H          0.3233298117        2.2799518258       -0.0664000809
 H          2.7599731986        1.9197984131       -0.0815021275
 H          3.6724938977       -0.3726779076       -0.0112156550
 H          2.1378236404       -2.3039460269        0.0729118157
 H         -0.2990531800       -1.9452129725        0.0864803149
  21
  -25.725682190000001        5.5649498215943144E-002 !mtd4
 N         -2.3061029712       -0.1988150394       -1.1902310959
 C         -1.6626206028        0.4187774644        0.0198819972
 C         -2.3171075906       -0.0680780140        1.3074355737
 C         -0.1687003576        0.1932860294        0.0164135477
 C          0.7146683727        1.2771386010       -0.0382725523
 C          2.0909450711        1.0745759796       -0.0490294564
 C          2.6054329094       -0.2154644571       -0.0056440252
 C          1.7406333394       -1.3019732599        0.0472738215
 C          0.3643938563       -1.0983658695        0.0570214441
 H         -3.3113746153        0.0217320466       -1.2377818238
 H         -2.2136962454       -1.2238452571       -1.1745944875
 H         -1.8671394669        0.1403463052       -2.0581347752
 H         -1.8273308000        1.5071122273       -0.0542920709
 H         -1.8698760115        0.4008846877        2.1843104516
 H         -2.2037880450       -1.1456798452        1.4168132835
 H         -3.3852151207        0.1498468747        1.3181136696
 H          0.3232603489        2.2795499906       -0.0737824094
 H          2.7598550014        1.9192458819       -0.0917083456
 H          3.6724295630       -0.3729548336       -0.0136603549
 H          2.1378443955       -2.3038198644        0.0806457906
 H         -0.2989967684       -1.9449888424        0.0963121699
  21
  -25.725681840000000        5.5628891228053361E-002 !mtd1
 N         -2.3064052762       -0.2001465291       -1.1898466556
 C         -1.6626213471        0.4187643627        0.0194383556
 C         -2.3167838180       -0.0666874401        1.3076801936
 C         -0.1687005478        0.1932877463        0.0159815145
 C          0.7146789424        1.2771831425       -0.0376773427
 C          2.0909603852        1.0746348433       -0.0481043475
 C          2.6054411585       -0.2154315001       -0.0053918965
 C          1.7406311542       -1.3019789302        0.0465581127
 C          0.3643878872       -1.0983833373        0.0559996746
 H         -2.2141935285       -1.2249830906       -1.1730435207
 H         -1.8674610280        0.1380257212       -2.0584385412
 H         -3.3115993735        0.0204857224       -1.2374575857
 H         -1.8273576952        1.5070128214       -0.0559272284
 H         -2.2030921382       -1.1440108660        1.4183674165
 H         -3.3850910713        0.1509364961        1.3182273938
 H         -1.8696094989        0.4035099186        2.1838873524
 H          0.3232759925        2.2796179448       -0.0725756135
 H          2.7598799450        1.9193385183       -0.0899555917
 H          3.6724414755       -0.3729108357       -0.0131210436
 H          2.1378357985       -2.3038444690        0.0794374142
 H         -0.2990123332       -1.9450297853        0.0946015853
  21
  -25.725681320000000        5.5598289221370487E-002 !mtd4
 N         -2.3060528580       -0.1983366517       -1.1903496489
 C         -1.6626180455        0.4187747007        0.0200300118
 C         -2.3171593322       -0.0685823494        1.3073694409
 C         -0.1686980692        0.1932802796        0.0165032615
 C          0.7146669443        1.2771183925       -0.0385173358
 C          2.0909428653        1.0745524909       -0.0493334590
 C          2.6054333096       -0.2154779308       -0.0056714947
 C          1.7406370198       -1.3019742831        0.0475529981
 C          0.3643982520       -1.0983647473        0.0573266342
 H         -1.8671411981        0.1412984254       -2.0581599245
 H         -3.3115447608        0.0221285334       -1.2377811517
 H         -2.2135063007       -1.2231146624       -1.1751777496
 H         -1.8273301211        1.5071377182       -0.0537135472
 H         -1.8700084457        0.4000872270        2.1844426282
 H         -2.2038099251       -1.1462197032        1.4163631069
 H         -3.3852766669        0.1492890315        1.3180623860
 H          0.3232567673        2.2795220363       -0.0742203150
 H          2.7598496062        1.9192123865       -0.0922608443
 H          3.6724294237       -0.3729710854       -0.0136946132
 H          2.1378493078       -2.3038132637        0.0811445041
 H         -0.2989907188       -1.9449837175        0.0967426003
  21
  -25.725681200000000        5.5591229610907560E-002 !mtd2
 N         -2.3076437634       -0.2074698265       -1.1878403251
 C         -1.6626296685        0.4187104940        0.0170811822
 C         -2.3155035283       -0.0589664474        1.3088373301
 C         -0.1687020682        0.1933105084        0.0141103425
 C          0.7147171664        1.2774267567       -0.0341493279
 C          2.0910202832        1.0749556156       -0.0432400246
 C          2.6054853616       -0.2152430642       -0.0044685559
 C          1.7406411173       -1.3019898778        0.0424742554
 C          0.3643788484       -1.0984572923        0.0507856786
 H         -2.2169139960       -1.2323018971       -1.1643337739
 H         -1.8686431139        0.1244192887       -2.0588239391
 H         -3.3125727148        0.0141396854       -1.2365180399
 H         -1.8274674610        1.5064667211       -0.0649099318
 H         -3.3841514226        0.1564833343        1.3180788563
 H         -1.8690709433        0.4183670983        2.1817286665
 H         -2.1993855190       -1.1352087726        1.4270503159
 H          0.3233285924        2.2799750604       -0.0658108567
 H          2.7599714918        1.9198280895       -0.0809437857
 H          3.6725011837       -0.3726653646       -0.0112954826
 H          2.1378305905       -2.3039577948        0.0722880764
 H         -0.2990458227       -1.9452248906        0.0859968651
  21
  -25.725680570000002        5.5554181359676900E-002 !mtd6
 N         -2.2374912584        0.5075833323        1.2345303388
 C         -1.6984790349       -0.2307357550        0.0409450878
 C         -2.3292874093        0.2686530061       -1.2534472218
 C         -0.1892862220       -0.1732847370       -0.0000701904
 C          0.4822168300        1.0492968705       -0.0869774199
 C          1.8723205854        1.0979742148       -0.1218988859
 C          2.6123089008       -0.0769961893       -0.0690710030
 C          1.9594116907       -1.3006049135        0.0183802806
 C          0.5696469718       -1.3481446977        0.0524270397
 H         -3.2588090283        0.3993584235        1.3161916649
 H         -2.0371315528        1.5149395997        1.1671807676
 H         -1.8127581899        0.1626599330        2.1072295859
 H         -1.9800676164       -1.2895933226        0.1699316416
 H         -2.0974093896        1.3200117881       -1.4172999993
 H         -3.4153143129        0.1743929411       -1.2294989372
 H         -1.9626440017       -0.2876883161       -2.1164905506
 H         -0.0836997905        1.9636023778       -0.1274636507
 H          2.3769114057        2.0483834891       -0.1901230867
 H          3.6898946888       -0.0393687358       -0.0959071198
 H          2.5313763875       -2.2138111900        0.0596846899
 H          0.0702622572       -2.2999737868        0.1189109550
  21
  -25.725680019999999        5.5521857835206037E-002 !input
 N         -2.3076447553       -0.2031348124       -1.1888010870
 C         -1.6625891048        0.4186718074        0.0183156525
 C         -2.3156020819       -0.0633524848        1.3083870126
 C         -0.1686850595        0.1931664275        0.0144899581
 C          0.7146684188        1.2771963736       -0.0365944023
 C          2.0909873106        1.0747861154       -0.0456923275
 C          2.6055158503       -0.2152746888       -0.0042928865
 C          1.7407388753       -1.3019718764        0.0449574339
 C          0.3644272828       -1.0984892852        0.0531965374
 H         -3.3129276805        0.0173818412       -1.2356939070
 H         -2.2154736171       -1.2281275253       -1.1696995860
 H         -1.8699582091        0.1330372407       -2.0585199259
 H         -1.8272717627        1.5067260171       -0.0596254015
 H         -2.2018709467       -1.1403855519        1.4217372949
 H         -3.3838629545        0.1544476602        1.3193960744
 H         -1.8675271440        0.4090919066        2.1829246790
 H          0.3232356060        2.2796237961       -0.0703301242
 H          2.7599025969        1.9195903737       -0.0853526726
 H          3.6725391232       -0.3726138043       -0.0109364729
 H          2.1380424046       -2.3038132180        0.0765996247
 H         -0.2990760343       -1.9451267520        0.0894369275
  21
  -25.725679860000000        5.5512458160052514E-002 !mtd6
 N         -2.3095373607       -0.2157618897       -1.1853646525
 C         -1.6626139910        0.4185923083        0.0143006605
 C         -2.3135312666       -0.0501834752        1.3102607154
 C         -0.1687020931        0.1933281741        0.0114517924
 C          0.7147834107        1.2776660617       -0.0304457500
 C          2.0911114726        1.0753156332       -0.0374386052
 C          2.6055662947       -0.2150034553       -0.0029190565
 C          1.7406543735       -1.3019434890        0.0379362107
 C          0.3643560589       -1.0985418609        0.0443993266
 H         -3.3143429388        0.0065494239       -1.2346382980
 H         -2.2200715516       -1.2406950825       -1.1543667513
 H         -1.8713214363        0.1091822814       -2.0590675697
 H         -1.8275883323        1.5057424038       -0.0752018827
 H         -3.3824840131        0.1637503282        1.3189174067
 H         -1.8670543824        0.4345162556        2.1790660537
 H         -2.1956389354       -1.1253256112        1.4365431242
 H          0.3233904456        2.2803196779       -0.0585138366
 H          2.7600734634        1.9203971947       -0.0699872625
 H          3.6725973665       -0.3723842391       -0.0081353400
 H          2.1377781830       -2.3040293705        0.0644645198
 H         -0.2990585088       -1.9454785957        0.0753265774
  21
  -25.725679270000001        5.5477810608921513E-002 !mtd3
 N         -2.2365905649        0.5206576816        1.2305675042
 C         -1.6983871810       -0.2305347151        0.0447440307
 C         -2.3304358554        0.2546399932       -1.2544812632
 C         -0.1892777639       -0.1733134765        0.0014830187
 C          0.4821988449        1.0486821288       -0.0938243036
 C          1.8723086920        1.0972327032       -0.1297389919
 C          2.6123191315       -0.0773671076       -0.0699797663
 C          1.9594133051       -1.3003161965        0.0258580592
 C          0.5696803378       -1.3477792290        0.0613430502
 H         -3.2578333188        0.4131857929        1.3141612038
 H         -2.0364129432        1.5272460264        1.1522165499
 H         -1.8112419558        0.1853814397        2.1067177274
 H         -1.9797602752       -1.2879086597        0.1858018808
 H         -1.9645733456       -0.3111904810       -2.1117056221
 H         -2.0985072990        1.3041793752       -1.4299276499
 H         -3.4162400207        0.1606356651       -1.2284327660
 H         -0.0838657443        1.9625996041       -0.1404247549
 H          2.3769777423        2.0471444793       -0.2039827261
 H          3.6899064658       -0.0400872112       -0.0976119723
 H          2.5314647270       -2.2131717773        0.0730239685
 H          0.0704877117       -2.2990697560        0.1366129060
  21
  -25.725679060000001        5.5465483648718554E-002 !mtd3
 N         -2.2366914908        0.4947890304        1.2391070134
 C         -1.6985606375       -0.2309156617        0.0375128087
 C         -2.3301667780        0.2822402179       -1.2511596432
 C         -0.1893725177       -0.1732771835       -0.0035180912
 C          0.4823943398        1.0498042899       -0.0813093780
 C          1.8725622206        1.0987009332       -0.1139232955
 C          2.6124327144       -0.0766212210       -0.0678684715
 C          1.9591990632       -1.3006198713        0.0107990080
 C          0.5694042580       -1.3484839447        0.0427647132
 H         -1.8120609771        0.1400483449        2.1079722100
 H         -3.2582865023        0.3865216548        1.3196381622
 H         -2.0352109566        1.5023496721        1.1827577134
 H         -1.9803082295       -1.2910094856        0.1555407124
 H         -1.9638391083       -0.2646011934       -2.1204274725
 H         -2.0985929155        1.3354048803       -1.4037760117
 H         -3.4159263816        0.1872559083       -1.2277461383
 H         -0.0835991397        1.9642674728       -0.1169290118
 H          2.3774830518        2.0494335993       -0.1747719779
 H          3.6900792441       -0.0390764017       -0.0926630078
 H          2.5311152203       -2.2140515481        0.0474151385
 H          0.0700792578       -2.3006458109        0.1050332562
  21
  -25.725678479999999        5.5431451985765795E-002 !mtd2
 N         -2.2376746595        0.4529057022        1.2510927178
 C         -1.6987678000       -0.2312061475        0.0257349320
 C         -2.3287299623        0.3265429506       -1.2451577334
 C         -0.1894904562       -0.1731107785       -0.0108695514
 C          0.4825902940        1.0512785690       -0.0606006122
 C          1.8728475646        1.1006365464       -0.0884488602
 C          2.6124555923       -0.0755129153       -0.0649398228
 C          1.9589596241       -1.3008076942       -0.0133217984
 C          0.5690728866       -1.3490976714        0.0136552081
 H         -2.0333817317        1.4613292572        1.2306687318
 H         -1.8157478783        0.0667325596        2.1080242752
 H         -3.2594573150        0.3445737491        1.3258287175
 H         -1.9813261373       -1.2945672001        0.1065292793
 H         -3.4144732336        0.2298983569       -1.2267902990
 H         -1.9605706884       -0.1893559672       -2.1325098037
 H         -2.0980737322        1.3845094187       -1.3602816773
 H         -0.0831312788        1.9664522451       -0.0776158023
 H          2.3779805159        2.0523722116       -0.1281805952
 H          3.6901674567       -0.0376170671       -0.0861562813
 H          2.5306662065       -2.2148874337        0.0063560188
 H          0.0694893195       -2.3022554471        0.0551234864
  21
  -25.725678259999999        5.5418548886897089E-002 !mtd1
 N         -2.2381991580        0.4253464057        1.2582292277
 C         -1.6988962349       -0.2311933315        0.0180892287
 C         -2.3279858159        0.3552630636       -1.2402882392
 C         -0.1895604001       -0.1727878765       -0.0158022641
 C          0.4827763815        1.0520763697       -0.0472057469
 C          1.8730886555        1.1015931657       -0.0718087794
 C          2.6125058882       -0.0748767283       -0.0628845125
 C          1.9587621838       -1.3006583242       -0.0290559819
 C          0.5688184764       -1.3491020082       -0.0055040762
 H         -2.0322264613        1.4336348777        1.2611200217
 H         -1.8177720996        0.0190069217        2.1065299822
 H         -3.2602243410        0.3168788785        1.3293594527
 H         -1.9818775339       -1.2960095416        0.0745578455
 H         -2.0984040805        1.4158870090       -1.3306512303
 H         -3.4137608928        0.2571575594       -1.2253987456
 H         -1.9583800871       -0.1395413758       -2.1388140052
 H         -0.0827799372        1.9675001433       -0.0523822756
 H          2.3784143157        2.0537039823       -0.0976886071
 H          3.6902615259       -0.0368574425       -0.0814972340
 H          2.5303209743       -2.2150016747       -0.0204359997
 H          0.0690498431       -2.3026565106        0.0223929646
  21
  -25.725678139999999        5.5411512099020309E-002 !mtd6
 N         -2.2382382453        0.4237589263        1.2586162227
 C         -1.6989046641       -0.2311880620        0.0176498945
 C         -2.3279395655        0.3569056731       -1.2399930984
 C         -0.1895653726       -0.1727656375       -0.0160794243
 C          0.4827866259        1.0521172004       -0.0464316655
 C          1.8731018405        1.1016400724       -0.0708538410
 C          2.6125075310       -0.0748430879       -0.0627702745
 C          1.9587492497       -1.3006443960       -0.0299565533
 C          0.5688025062       -1.3490936428       -0.0065964078
 H         -2.0321771955        1.4320248380        1.2628420829
 H         -1.8178960999        0.0162737830        2.1064093910
 H         -3.2602765945        0.3152791410        1.3295381674
 H         -1.9819073819       -1.2960718367        0.0727210808
 H         -1.9582119671       -0.1366799956       -2.1391740674
 H         -2.0984046805        1.4177685694       -1.3289332644
 H         -3.4135743159        0.2587207880       -1.2253228754
 H         -0.0827591712        1.9675512933       -0.0509169113
 H          2.3784389277        2.0537660733       -0.0959400295
 H          3.6902653901       -0.0368191973       -0.0812446810
 H          2.5302989416       -2.2149992313       -0.0219752028
 H          0.0690227782       -2.3026650038        0.0205149544
  21
  -25.725677409999999        5.5368724218915130E-002 !mtd4
 N         -2.2368778530        0.5026125214        1.2364774204
 C         -1.6984997568       -0.2307301060        0.0396096739
 C         -2.3299816956        0.2740004486       -1.2524565805
 C         -0.1893256136       -0.1733890086       -0.0017455655
 C          0.4822712975        1.0494568501       -0.0848244808
 C          1.8724225724        1.0983114581       -0.1186829431
 C          2.6123586514       -0.0768150621       -0.0687227798
 C          1.9593380242       -1.3005851487        0.0153260542
 C          0.5695667112       -1.3483548217        0.0487103530
 H         -1.8124717478        0.1536001596        2.1078136630
 H         -3.2585030538        0.3948490117        1.3176157173
 H         -2.0354025254        1.5098255336        1.1738045200
 H         -1.9803106510       -1.2900294955        0.1645615970
 H         -3.4161293652        0.1834750277       -1.2264160903
 H         -1.9672881230       -0.2819329630       -2.1176238943
 H         -2.0945475438        1.3247986475       -1.4143476896
 H         -0.0836587644        1.9638219008       -0.1240261141
 H          2.3772469858        2.0487897219       -0.1842212612
 H          3.6899599657       -0.0394739528       -0.0952543046
 H          2.5313189586       -2.2138880596        0.0546752299
 H          0.0702393634       -2.3002081490        0.1153380508
  21
  -25.725677139999998        5.5352906936007369E-002 !mtd5
 N         -2.2366133593        0.5004790264        1.2373264463
 C         -1.6984888554       -0.2308343863        0.0390981378
 C         -2.3302864890        0.2762326586       -1.2519148581
 C         -0.1893415644       -0.1733238715       -0.0025085561
 C          0.4823274136        1.0495698125       -0.0841324981
 C          1.8724841255        1.0983909019       -0.1173610367
 C          2.6124206378       -0.0767686538       -0.0683026960
 C          1.9592601450       -1.3005618770        0.0140536852
 C          0.5694861419       -1.3483789658        0.0467673655
 H         -1.8120808022        0.1498780958        2.1079207964
 H         -3.2581955117        0.3925426989        1.3184738954
 H         -2.0353361059        1.5078123744        1.1763955547
 H         -1.9801593953       -1.2903572623        0.1622752614
 H         -2.0986347977        1.3285317715       -1.4094956920
 H         -3.4161806353        0.1814824256       -1.2277898595
 H         -1.9642421765       -0.2749382037       -2.1185229277
 H         -0.0837330571        1.9639119458       -0.1216127419
 H          2.3773525728        2.0489782549       -0.1808596959
 H          3.6900601741       -0.0392845811       -0.0935713011
 H          2.5311840800       -2.2138815353        0.0532018607
 H          0.0701831371       -2.3003695888        0.1117497938
  21
  -25.725677139999998        5.5352906936007369E-002 !mtd6
 N         -2.3089650315       -0.2162232323       -1.1854589893
 C         -1.6626685966        0.4186061747        0.0143367181
 C         -2.3140305784       -0.0499377372        1.3101382888
 C         -0.1687162921        0.1935510162        0.0120893711
 C          0.7148373380        1.2777973920       -0.0300161899
 C          2.0911518184        1.0752881016       -0.0375300091
 C          2.6055154772       -0.2150913429       -0.0034161561
 C          1.7405402431       -1.3019728279        0.0376139279
 C          0.3642903998       -1.0983701340        0.0446411288
 H         -1.8707506398        0.1091915747       -2.0590541828
 H         -3.3141299191        0.0053071470       -1.2348991353
 H         -2.2186166069       -1.2408426279       -1.1546847731
 H         -1.8278023314        1.5056907709       -0.0755908211
 H         -3.3828787708        0.1643918904        1.3189953764
 H         -1.8671160200        0.4337828409        2.1792440570
 H         -2.1966116038       -1.1251830285        1.4359795580
 H          0.3236211095        2.2805185098       -0.0580744107
 H          2.7602091222        1.9203000226       -0.0700591352
 H          3.6725291895       -0.3725493492       -0.0094268243
 H          2.1375507185       -2.3041161449        0.0637187569
 H         -0.2992836631       -1.9451713732        0.0758537588
  21
  -25.725676960000001        5.5342364591329733E-002 !mtd1
 N         -2.2365601027        0.5150466731        1.2325667629
 C         -1.6984319352       -0.2305867487        0.0431563457
 C         -2.3304117105        0.2606908920       -1.2538306443
 C         -0.1893041168       -0.1733700212        0.0003765492
 C          0.4822246094        1.0488945783       -0.0910931192
 C          1.8723549522        1.0975924958       -0.1263265673
 C          2.6123485573       -0.0771739534       -0.0694919757
 C          1.9593549408       -1.3003685679        0.0226061166
 C          0.5696382383       -1.3480087564        0.0571855579
 H         -3.2578127159        0.4074593520        1.3155590069
 H         -2.0360690385        1.5219162138        1.1589820694
 H         -1.8114288414        0.1756703593        2.1072165807
 H         -1.9797936335       -1.2886185591        0.1792027085
 H         -3.4161755510        0.1660995056       -1.2284021849
 H         -1.9643633803       -0.3010693154       -2.1137828054
 H         -2.0988269276        1.3109388535       -1.4244933505
 H         -0.0838540235        1.9629306845       -0.1352579592
 H          2.3770417806        2.0477287169       -0.1975145811
 H          3.6899564294       -0.0398371446       -0.0964292933
 H          2.5313934816       -2.2133499463        0.0675338924
 H          0.0704587183       -2.2995240704        0.1296753900
  21
  -25.721243760000000        5.0780860236724105E-004 !mtd2
 N         -2.3804129952       -1.0722918629       -0.2851321502
 C         -1.6713956698        0.2573012937       -0.2755070779
 C         -2.2966317309        1.1571033403        0.7881571949
 C         -0.1689342453        0.1018080027       -0.1286245038
 C          0.6167563236        1.0834603038        0.4892953495
 C          1.9984524130        0.9477908873        0.5830963438
 C          2.6279306526       -0.1691536125        0.0497589942
 C          1.8702292596       -1.1461224255       -0.5824729409
 C          0.4888270581       -1.0072235087       -0.6733881664
 H         -3.4024466955       -0.9479898643       -0.3170093637
 H         -2.1602415417       -1.6034027345        0.5690526200
 H         -2.1249367664       -1.6507897011       -1.0976807518
 H         -1.8455238319        0.7204404341       -1.2617606810
 H         -2.0588052643        0.7926372632        1.7868340038
 H         -3.3830033233        1.1752209468        0.6988617768
 H         -1.9517027661        2.1880119685        0.7115736291
 H          0.1530735413        1.9658546084        0.8931629589
 H          2.5837130273        1.7138612856        1.0662495920
 H          3.6991434050       -0.2739994494        0.1202105982
 H          2.3549479700       -2.0105186933       -1.0075419105
 H         -0.0785203703       -1.7655018208       -1.1824657174
  21
  -25.721223089999999        4.9682195487006609E-004 !mtd1
 N         -2.2697726795        0.9955052309       -0.8696549516
 C         -1.6622467076        0.2784879886        0.3082512837
 C         -2.4247182234       -1.0206669933        0.5586273643
 C         -0.1665078149        0.0794467216        0.1460796370
 C          0.6066210861        1.0208875983       -0.5427073675
 C          1.9848881992        0.8747104117       -0.6662949303
 C          2.6233268476       -0.2167443473       -0.0926051635
 C          1.8783726546       -1.1552127343        0.6094314828
 C          0.5005718133       -1.0048619514        0.7316939485
 H         -2.0718840165        0.4858474359       -1.7419552976
 H         -1.9164363270        1.9574377659       -0.9723514420
 H         -3.2933596864        1.0622156421       -0.7761272390
 H         -1.8000929242        0.9316853447        1.1867875950
 H         -2.2324972003       -1.7378092380       -0.2385430774
 H         -3.5004701063       -0.8460998896        0.5865219700
 H         -2.1508267947       -1.4843080880        1.5060542023
 H          0.1331168565        1.8817479755       -0.9788187823
 H          2.5597887344        1.6119513362       -1.2036352837
 H          3.6918109287       -0.3313041735       -0.1858035721
 H          2.3710911097       -1.9991999517        1.0652723219
 H         -0.0533744711       -1.7342873441        1.2959101552
