  21
        -25.72568245
 N         -2.3074008080       -0.2054437953       -1.1883733398
 C         -1.6626218788        0.4187245857        0.0177048259
 C         -2.3157387522       -0.0611103388        1.3085502955
 C         -0.1686974761        0.1933028401        0.0144975135
 C          0.7147157597        1.2773622622       -0.0351830794
 C          2.0910137344        1.0748728400       -0.0445292329
 C          2.6054759342       -0.2152917295       -0.0046319582
 C          1.7406358357       -1.3019860529        0.0436242518
 C          0.3643788841       -1.0984391056        0.0521450683
 H         -1.8686184201        0.1281906962       -2.0585727163
 H         -3.3126657122        0.0158772585       -1.2366489295
 H         -2.2161887718       -1.2302215111       -1.1667726364
 H         -1.8274398179        1.5066203320       -0.0624353036
 H         -2.2003796430       -1.1376958573        1.4246144451
 H         -3.3843477863        0.1550490167        1.3182911825
 H         -1.8689920111        0.4141288539        2.1822533288
 H          0.3233250257        2.2798814852       -0.0676977008
 H          2.7599618238        1.9197023416       -0.0832756835
 H          3.6724877161       -0.3727304120       -0.0115623245
 H          2.1378283685       -2.3039223202        0.0744183964
 H         -0.2990409921       -1.9451703836        0.0884026152
