  15
  -20.486410809999999        8.8905764688876315E-002 !mtd4
 N         -2.6584536364       -0.0641213295       -0.5933334606
 C         -1.8107723565        0.2566908365        0.5970182360
 C         -0.3619703497        0.2757231224        0.2811596405
 C          0.4284953563        1.3995805859        0.0826552961
 C          1.7656370816        1.1064885651       -0.2024178723
 C          2.0397299944       -0.2462683277       -0.2346409892
 S          0.6139184816       -1.1405852440        0.0924917121
 H         -2.5168024751        0.6272536603       -1.3438184028
 H         -3.6625558452       -0.0716612414       -0.3580885153
 H         -2.4196449972       -0.9905959502       -0.9761131768
 H         -1.9975701025       -0.4803554643        1.3877499938
 H         -2.1111023348        1.2268753580        1.0111503491
 H          0.0457928317        2.4077152789        0.1503538228
 H          2.5159873809        1.8667431686       -0.3774040667
 H          3.0001737436       -0.6887633821       -0.4321113391
  15
  -20.486410490000001        8.8875664306774890E-002 !mtd5
 N         -2.6299202667       -0.1108554378        0.7039532258
 C         -1.8349238696        0.2963454628       -0.4962948632
 C         -0.3736092562        0.2947103976       -0.2439158134
 C          0.4262971633        1.4023016714        0.0024121007
 C          1.7742819339        1.0914818031        0.2060029054
 C          2.0477290246       -0.2594147814        0.1258701209
 S          0.6077723935       -1.1297830765       -0.2038724227
 H         -3.6433335306       -0.1027862204        0.5132707601
 H         -2.4540962044        0.5246600268        1.4955837140
 H         -2.3761288731       -1.0622567069        1.0078178629
 H         -2.1514795396        1.2932594361       -0.8257791187
 H         -2.0576045076       -0.3821621381       -1.3292318556
 H          0.0423293648        2.4119410278        0.0264148068
 H          2.5326145657        1.8381357529        0.4036686336
 H          3.0153123613       -0.7134789650        0.2477531645
  15
  -20.486410200000002        8.8848394638125577E-002 !mtd3
 N         -2.6585403687       -0.0629274605       -0.5937168990
 C         -1.8108049817        0.2559460303        0.5971197509
 C         -0.3620252191        0.2753078985        0.2812070213
 C          0.4280667765        1.3993496392        0.0822821609
 C          1.7652702096        1.1065831657       -0.2028423068
 C          2.0397740451       -0.2460986793       -0.2347108015
 S          0.6143139157       -1.1407559966        0.0930052563
 H         -3.6625602649       -0.0705902254       -0.3585218932
 H         -2.4199615407       -0.9887440222       -0.9777210532
 H         -2.5166886422        0.6296481055       -1.3434386795
 H         -1.9976782343       -0.4823626384        1.3866497574
 H         -2.1109647715        1.2254927807        1.0128742738
 H          0.0450643672        2.4073845864        0.1497626573
 H          2.5153820827        1.8670140496       -0.3780829749
 H          3.0003092675       -0.6883638286       -0.4322478925
  15
  -20.486409200000001        8.8754425452771082E-002 !mtd1
 N         -2.6585720506       -0.0627771701       -0.5937445807
 C         -1.8108025406        0.2558525138        0.5971312070
 C         -0.3620273179        0.2752548827        0.2811991036
 C          0.4280172624        1.3993194613        0.0822182676
 C          1.7652342617        1.1065967034       -0.2028871255
 C          2.0397964894       -0.2460749202       -0.2346869655
 S          0.6143677159       -1.1407773908        0.0930455047
 H         -2.4199862651       -0.9884072658       -0.9779526106
 H         -2.5168035217        0.6298670768       -1.3431569197
 H         -3.6628590159       -0.0705429690       -0.3584572031
 H         -1.9976697648       -0.4825993230        1.3865291578
 H         -2.1109480584        1.2253258628        1.0130655327
 H          0.0449776654        2.4073417736        0.1496759061
 H          2.5153125177        1.8670522285       -0.3781646400
 H          3.0003545651       -0.6883052567       -0.4321913028
  15
  -20.486408720000000        8.8709355551854163E-002 !mtd2
 N         -2.6300585649       -0.1093947243        0.7042505930
 C         -1.8349242881        0.2953369993       -0.4967406380
 C         -0.3736403862        0.2941775576       -0.2441970846
 C          0.4259296100        1.4020802117        0.0018053171
 C          1.7739690795        1.0917040215        0.2057138595
 C          2.0477984215       -0.2591474182        0.1261244016
 S          0.6081213760       -1.1300376792       -0.2034569344
 H         -2.3762471751       -1.0598559172        1.0100831538
 H         -3.6435317125       -0.1018674009        0.5133776952
 H         -2.4544205627        0.5279341936        1.4947113616
 H         -2.1514044569        1.2915824407       -0.8283146432
 H         -2.0575376424       -0.3848704763       -1.3283074506
 H          0.0416631349        2.4116136638        0.0254583558
 H          2.5320694299        1.8386399806        0.4032043082
 H          3.0155011471       -0.7128927729        0.2482458999
  15
  -20.486408590000000        8.8697153059467404E-002 !mtd4
 N         -2.6300373675       -0.1096936867        0.7041824273
 C         -1.8349206007        0.2955466462       -0.4966477239
 C         -0.3736309812        0.2942877415       -0.2441330782
 C          0.4260079543        1.4021262654        0.0019375218
 C          1.7740382172        1.0916607426        0.2057697945
 C          2.0477898261       -0.2591996827        0.1260669596
 S          0.6080530312       -1.1299844166       -0.2035344801
 H         -2.4543912638        0.5271138921        1.4946964109
 H         -2.3762361598       -1.0603820748        1.0096190051
 H         -3.6437054836       -0.1020411069        0.5133135647
 H         -2.1514175246        1.2919300502       -0.8277898158
 H         -2.0575451085       -0.3843095091       -1.3284987474
 H          0.0418024046        2.4116812640        0.0256633774
 H          2.5321854525        1.8385392818        0.4032974870
 H          3.0154681142       -0.7130092625        0.2481438156
  15
  -20.486302269999999        7.9258964015599315E-002 !mtd1
 N         -2.6660250196       -0.0026171735       -0.6075000029
 C         -1.8119824115        0.2184175331        0.6009466778
 C         -0.3644410122        0.2542199375        0.2814532793
 C          0.4065822257        1.3872141221        0.0609930784
 C          1.7477665571        1.1113399314       -0.2223578848
 C          2.0443067610       -0.2370346535       -0.2315943658
 S          0.6343793381       -1.1490753499        0.1145726583
 H         -2.4318983259       -0.8957358703       -1.0644850029
 H         -2.5257035524        0.7464361488       -1.3008014632
 H         -3.6692630938       -0.0261567408       -0.3688695971
 H         -2.0002410330       -0.5779929511        1.3314537262
 H         -2.1045673405        1.1542956216        1.0923870126
 H          0.0073038606        2.3898136441        0.1127656365
 H          2.4849541464        1.8806441265       -0.4130381388
 H          3.0114969596       -0.6668833932       -0.4240410082
  15
  -20.486285179999999        7.7838484411499542E-002 !mtd2
 N         -2.6668750474        0.0032056157       -0.6084740038
 C         -1.8121109837        0.2147746546        0.6010883933
 C         -0.3646677412        0.2521283231        0.2813236832
 C          0.4045183511        1.3859833690        0.0588599474
 C          1.7461062797        1.1117735364       -0.2241579515
 C          2.0448264857       -0.2361496762       -0.2310421367
 S          0.6363201555       -1.1498360594        0.1164873920
 H         -2.5268471150        0.7574946422       -1.2960078969
 H         -3.6697967578       -0.0219140278       -0.3694505538
 H         -2.4330014513       -0.8865549123       -1.0727080490
 H         -2.0006315626       -0.5867011594        1.3259699174
 H         -2.1035978936        1.1473996252        1.0993707851
 H          0.0035392876        2.3879884217        0.1090649941
 H          2.4820814690        1.8819717369       -0.4158543656
 H          3.0128342872       -0.6646948719       -0.4222371762
  15
  -20.486258029999998        7.5634004511174635E-002 !mtd4
 N         -2.6413417624        0.0002802294        0.7176983532
 C         -1.8350750476        0.2197294874       -0.5233167028
 C         -0.3760618939        0.2539278998       -0.2610004361
 C          0.3986278060        1.3846503473       -0.0421001761
 C          1.7511748291        1.1083102247        0.1802877521
 C          2.0531974336       -0.2383634239        0.1428944948
 S          0.6341036525       -1.1482177841       -0.1701421929
 H         -2.3902296826       -0.8927133501        1.1657963356
 H         -3.6529614155       -0.0225678870        0.5184499575
 H         -2.4734731627        0.7497449061        1.4046708498
 H         -2.1451922290        1.1556429087       -1.0035113949
 H         -2.0529016466       -0.5769705488       -1.2455036104
 H         -0.0067143671        2.3861271702       -0.0509915861
 H          2.4922937983        1.8762796836        0.3607989969
 H          3.0289113614       -0.6683280334        0.2854820237
  15
  -20.486229810000001        7.3408792608709486E-002 !mtd1
 N         -2.6429087531        0.0144895313        0.7182597715
 C         -1.8351214583        0.2098659882       -0.5258000330
 C         -0.3763740546        0.2486552887       -0.2626718080
 C          0.3951783363        1.3822700642       -0.0477684702
 C          1.7482771572        1.1103948704        0.1767351442
 C          2.0539511019       -0.2355913584        0.1445975910
 S          0.6374390484       -1.1504716694       -0.1654768256
 H         -3.6541643324       -0.0129767662        0.5181627234
 H         -2.4765169552        0.7773768084        1.3903966734
 H         -2.3917455458       -0.8695394763        1.1844217239
 H         -2.1443520889        1.1365074571       -1.0241793990
 H         -2.0523767297       -0.6004276332       -1.2328804315
 H         -0.0126308385        2.3826691194       -0.0615163769
 H          2.4872354654        1.8809728545        0.3549567951
 H          3.0308950341       -0.6622761592        0.2887281630
  15
  -20.486229770000001        7.3405685442262253E-002 !mtd1
 N         -2.6428950732        0.0149401698        0.7183274442
 C         -1.8351210478        0.2095557286       -0.5258607160
 C         -0.3763808177        0.2484891546       -0.2627147352
 C          0.3950636189        1.3822025538       -0.0479348751
 C          1.7481750220        1.1104640012        0.1766291278
 C          2.0539553253       -0.2354992516        0.1447154944
 S          0.6375254288       -1.1505592930       -0.1653446398
 H         -2.4767867821        0.7783512241        1.3898116098
 H         -2.3915188473       -0.8684848449        1.1851106968
 H         -3.6544159654       -0.0130109611        0.5181701677
 H         -2.1443208880        1.1359123159       -1.0247887036
 H         -2.0524321506       -0.6011674143       -1.2324281521
 H         -0.0127208653        2.3825986734       -0.0624587479
 H          2.4871867359        1.8811786237        0.3540423642
 H          3.0310245893       -0.6619865237        0.2885616137
  15
  -20.486227299999999        7.3214072495889002E-002 !mtd3
 N         -2.6694645495        0.0243656261       -0.6121628890
 C         -1.8126632445        0.2015855429        0.6014554071
 C         -0.3655588981        0.2446439380        0.2809672558
 C          0.3969900580        1.3814608913        0.0513509783
 C          1.7400128370        1.1132989043       -0.2307402210
 C          2.0465262579       -0.2328811233       -0.2296240993
 S          0.6433536007       -1.1525783402        0.1238218815
 H         -3.6719270534       -0.0066743827       -0.3722964372
 H         -2.4371527762       -0.8523018830       -1.1010305742
 H         -2.5300114475        0.7974395252       -1.2790619142
 H         -2.0018058831       -0.6189796546        1.3044988875
 H         -2.1014974311        1.1208382830        1.1254665593
 H         -0.0098325204        2.3813946346        0.0952259285
 H          2.4714028144        1.8866119913       -0.4273850833
 H          3.0169391570       -0.6570411386       -0.4184076811
  15
  -20.484044610000002        7.2694188565194783E-003 !mtd4
 N         -2.5997160005       -0.6172734242       -0.0652890811
 C         -1.8244111767        0.6291259230        0.2262604733
 C         -0.3544405882        0.4547961004        0.1160770413
 C          0.5915452345        1.4626124678        0.2509914578
 C          1.9118482141        1.0268545160        0.1027578308
 C          2.0212693239       -0.3257919609       -0.1495848565
 S          0.4629347939       -1.0389428229       -0.1981435968
 H         -2.4096254042       -0.9535142226       -1.0203862942
 H         -3.6162829126       -0.4633467830        0.0156522482
 H         -2.3450400415       -1.3712894109        0.5893809762
 H         -2.0707303398        0.9797302299        1.2359614134
 H         -2.1457470745        1.4219889825       -0.4603978740
 H          0.3284169560        2.4909857845        0.4535540428
 H          2.7670494759        1.6860827460        0.1792207284
 H          2.9399369165       -0.8661582591       -0.2955614850
  15
  -20.484032890000002        7.1798199604768574E-003 !mtd1
 N         -2.5964226664       -0.6339035786        0.0213306932
 C         -1.8271834769        0.6428113962        0.1544217113
 C         -0.3556509006        0.4608541654        0.0843625943
 C          0.5917177282        1.4625047172        0.2516744651
 C          1.9131488581        1.0209879463        0.1337236657
 C          2.0221140805       -0.3299474291       -0.1278632756
 S          0.4619092705       -1.0342393909       -0.2226209604
 H         -2.3412790157       -1.2967251510        0.7676653596
 H         -2.4017501073       -1.0888815568       -0.8823978853
 H         -3.6140629438       -0.4752273994        0.0784519565
 H         -2.0860797210        1.1218285135        1.1065460820
 H         -2.1418172141        1.3377971101       -0.6338968811
 H          0.3287802344        2.4908560711        0.4546250582
 H          2.7694102977        1.6752882400        0.2360822573
 H          2.9414676514       -0.8735247200       -0.2567853141
