  15
        -20.48641081
 N         -2.6584536364       -0.0641213295       -0.5933334606
 C         -1.8107723565        0.2566908365        0.5970182360
 C         -0.3619703497        0.2757231224        0.2811596405
 C          0.4284953563        1.3995805859        0.0826552961
 C          1.7656370816        1.1064885651       -0.2024178723
 C          2.0397299944       -0.2462683277       -0.2346409892
 S          0.6139184816       -1.1405852440        0.0924917121
 H         -2.5168024751        0.6272536603       -1.3438184028
 H         -3.6625558452       -0.0716612414       -0.3580885153
 H         -2.4196449972       -0.9905959502       -0.9761131768
 H         -1.9975701025       -0.4803554643        1.3877499938
 H         -2.1111023348        1.2268753580        1.0111503491
 H          0.0457928317        2.4077152789        0.1503538228
 H          2.5159873809        1.8667431686       -0.3774040667
 H          3.0001737436       -0.6887633821       -0.4321113391
  15
        -20.48630227
 N         -2.6660250196       -0.0026171735       -0.6075000029
 C         -1.8119824115        0.2184175331        0.6009466778
 C         -0.3644410122        0.2542199375        0.2814532793
 C          0.4065822257        1.3872141221        0.0609930784
 C          1.7477665571        1.1113399314       -0.2223578848
 C          2.0443067610       -0.2370346535       -0.2315943658
 S          0.6343793381       -1.1490753499        0.1145726583
 H         -2.4318983259       -0.8957358703       -1.0644850029
 H         -2.5257035524        0.7464361488       -1.3008014632
 H         -3.6692630938       -0.0261567408       -0.3688695971
 H         -2.0002410330       -0.5779929511        1.3314537262
 H         -2.1045673405        1.1542956216        1.0923870126
 H          0.0073038606        2.3898136441        0.1127656365
 H          2.4849541464        1.8806441265       -0.4130381388
 H          3.0114969596       -0.6668833932       -0.4240410082
  15
        -20.48404461
 N         -2.5997160005       -0.6172734242       -0.0652890811
 C         -1.8244111767        0.6291259230        0.2262604733
 C         -0.3544405882        0.4547961004        0.1160770413
 C          0.5915452345        1.4626124678        0.2509914578
 C          1.9118482141        1.0268545160        0.1027578308
 C          2.0212693239       -0.3257919609       -0.1495848565
 S          0.4629347939       -1.0389428229       -0.1981435968
 H         -2.4096254042       -0.9535142226       -1.0203862942
 H         -3.6162829126       -0.4633467830        0.0156522482
 H         -2.3450400415       -1.3712894109        0.5893809762
 H         -2.0707303398        0.9797302299        1.2359614134
 H         -2.1457470745        1.4219889825       -0.4603978740
 H          0.3284169560        2.4909857845        0.4535540428
 H          2.7670494759        1.6860827460        0.1792207284
 H          2.9399369165       -0.8661582591       -0.2955614850
