  15
        -20.48641081
 N         -2.6584536364       -0.0641213295       -0.5933334606
 C         -1.8107723565        0.2566908365        0.5970182360
 C         -0.3619703497        0.2757231224        0.2811596405
 C          0.4284953563        1.3995805859        0.0826552961
 C          1.7656370816        1.1064885651       -0.2024178723
 C          2.0397299944       -0.2462683277       -0.2346409892
 S          0.6139184816       -1.1405852440        0.0924917121
 H         -2.5168024751        0.6272536603       -1.3438184028
 H         -3.6625558452       -0.0716612414       -0.3580885153
 H         -2.4196449972       -0.9905959502       -0.9761131768
 H         -1.9975701025       -0.4803554643        1.3877499938
 H         -2.1111023348        1.2268753580        1.0111503491
 H          0.0457928317        2.4077152789        0.1503538228
 H          2.5159873809        1.8667431686       -0.3774040667
 H          3.0001737436       -0.6887633821       -0.4321113391
