15
 energy: -20.490003474939 gnorm: 0.000420177142 xtb: 6.5.1 (fef0646)
N            1.60349670759269       -0.74402424194331        0.92761014640600
C            2.45247847935226        0.12451348748935        0.03027841853739
C            2.82185032202368        1.37136220739758        0.74745026482099
C            2.48756880699430        2.66117201271488        0.45822004744789
C            3.02372168852107        3.57939366274422        1.38616929711300
C            3.74355506836115        2.97948839615291        2.36774881173875
S            3.80926456881614        1.27937466563048        2.18339995023091
H            1.38378040807059       -1.64671299198889        0.48862380040158
H            0.72718102844311       -0.25877722347081        1.16085487816565
H            2.12086587397955       -0.90614222393029        1.80396308333455
H            1.88885026931390        0.35669225558683       -0.87458274983584
H            3.33876708210034       -0.45501543475698       -0.23836330500453
H            1.89458512953386        2.95271571989381       -0.38946891028593
H            2.87796756065492        4.64164910222252        1.32545724989749
H            4.24862700624245        3.43164060625769        3.19785901703210
