18
 energy: -19.433247787959 gnorm: 0.000469434481 xtb: 6.5.1 (fef0646)
N            1.89736690884828       -0.00527115153873        0.47939089285253
C            0.78664342029741        0.09324976373651       -0.50983732160627
C           -0.07376407750177       -1.17451510738042       -0.45532611022805
C           -1.22012354039134       -0.81913427348378        0.49066897581935
C           -1.53084253127382        0.62547646065868        0.10579813472756
C           -0.15145728515152        1.25505660305951       -0.13351157835084
H            2.52712903928614       -0.77974595913944        0.23980576544590
H            1.50922904710290       -0.17686230237015        1.41492716624206
H            2.44044074566035        0.86561906470478        0.50291645895181
H            1.22881553212672        0.23302695582564       -1.49604476997687
H            0.48322066894778       -2.05072726127319       -0.13225255896525
H           -0.47921338546082       -1.38224047330010       -1.44443903649385
H           -0.90650007926329       -0.87646358652135        1.53331196405270
H           -2.07997527187134       -1.47367129255779        0.36639025115808
H           -2.09808304619881        1.15193021289150        0.87055871408460
H           -2.11752004761986        0.63902880866282       -0.81318424061491
H            0.19007237031110        1.74051013542424        0.77928009077834
H           -0.19579846784812        2.01126340260126       -0.91320279787691
