  12
        -20.03785094
 N          0.4580195005       -1.2823902487        0.5289418315
 C          1.1917808995       -0.8964902866       -0.6597684501
 C          1.5430029868        0.5814262508       -0.5989968885
 F          2.2122540481        0.8609483437        0.5216904585
 Cl        -2.4510779016        0.2690317737       -0.0002094029
 H          0.3960361626       -2.2918464920        0.6108898548
 H         -1.2897574715       -0.3515577151        0.2242931629
 H          0.9635316713       -0.9478857979        1.3410870237
 H          0.5937336673       -1.1249649922       -1.5500264856
 H          2.1153918143       -1.4850346910       -0.7377560673
 H          0.6331931977        1.1929599850       -0.6069160464
 H          2.1498776474        0.8925098253       -1.4579372677
  12
        -20.03767585
 N          0.2051531314        0.5876518479        0.4980471582
 C          0.8829020270        0.1024461247       -0.6835531756
 C          2.3613112222        0.4533957194       -0.6311403901
 F          2.8801258387        0.1267886244        0.5542543918
 Cl        -2.8925802594       -0.5655246444        0.0206628962
 H          0.6957087452        0.2276308471        1.3082268674
 H         -1.6553519105       -0.1019670025        0.2198156048
 H          0.3070967175        1.5946153229        0.5505392935
 H          0.4020462420        0.5040047987       -1.5838198768
 H          0.7585397809       -0.9868083252       -0.7303912128
 H          2.5079198886        1.5303238864       -0.7743772006
 H          2.9301676342       -0.0557401073       -1.4185290527
  12
        -20.03720440
 N          0.2225471437       -1.6423655934        0.2738679459
 C          1.2502158334       -0.8359936477       -0.3688392633
 C          1.5141983976        0.4703755288        0.3673001035
 F          2.4768974062        1.1938752255       -0.2186022543
 Cl        -2.4867339135        0.2903964124       -0.0214824439
 H          0.1140579396       -2.5317634078       -0.2007380147
 H         -1.4101923781       -0.4915794136        0.0967562676
 H          0.4973540826       -1.8568404578        1.2256949611
 H          0.9416156251       -0.6112165519       -1.3962560457
 H          2.1881450432       -1.4000566469       -0.4531240095
 H          1.8126738748        0.2750354871        1.4035131891
 H          0.6034034052        1.0785881568        0.4127644685
  12
        -20.03325072
 N          0.4747226370       -1.6376320679        0.2889041366
 C          1.3513959703       -1.0909573418       -0.7280322586
 C          1.9581932692        0.2275428406       -0.2725259582
 F          1.0147124040        1.0852347523        0.1201614513
 Cl        -2.0850113023        0.5435602682        0.2071117246
 H          0.1852765804       -2.5836470800        0.0583877694
 H         -1.0472612951       -0.2954779240        0.2457657156
 H          0.9594762933       -1.6825976066        1.1789440492
 H          0.7582954385       -0.9216673558       -1.6341624703
 H          2.1375383377       -1.8103045479       -0.9945034292
 H          2.5466652336        0.6986677012       -1.0692292575
 H          2.6366337266        0.0663300709        0.5732695770
  12
        -20.03240053
 N          2.1377224951       -2.4568318287       -0.0009648310
 C          1.1319473780       -1.4125722282       -0.0556641888
 C          1.7161942269       -0.0089842187        0.0282494507
 F          0.7690243822        0.9359295803       -0.0229557445
 Cl        -2.5043795764        1.1349537056        0.0208025475
 H          2.7969100308       -2.3621092094       -0.7631741031
 H         -1.1796349192        1.0824455244        0.0006650049
 H          2.6660012898       -2.4047353159        0.8615866173
 H          0.4111170492       -1.5631668983        0.7561114540
 H          0.5517895065       -1.5180175417       -0.9805448166
 H          2.4210029620        0.1653645607       -0.7926513628
 H          2.2802987612        0.1191618281        0.9590849111
  12
        -20.03196860
 N          0.3976108366       -1.6764222869       -0.4824644650
 C          1.6265531699       -1.2074750658        0.1169523606
 C          1.9831802720        0.1978535289       -0.3458107571
 F          1.0058108486        1.0662387903       -0.0763983997
 Cl        -2.1523661242        0.5505872841        0.3575306538
 H         -0.3653746548       -1.0567496570       -0.2368595425
 H         -0.8955677737        0.9525551200        0.2237500025
 H          0.4675176427       -1.6648052858       -1.4928503147
 H          2.4322800850       -1.9165026851       -0.1086994890
 H          1.5081452977       -1.2201857346        1.2075099110
 H          2.1578909985        0.2126493299       -1.4277418508
 H          2.9035768012        0.5566229081        0.1308197587
  12
        -20.03106320
 N          0.3763901389       -1.7044224703       -0.4400776525
 C          1.6401953513       -1.1975497927        0.0532657315
 C          1.9139491214        0.2044852193       -0.4726474265
 F          1.0391604445        1.0912809595        0.0089501044
 Cl        -2.1295556570        0.5666805101        0.3364694827
 H          0.1346806428       -2.5960877833       -0.0238082324
 H         -0.8690296822        0.9677375186        0.2385309727
 H         -0.3723029680       -1.0533976177       -0.2321692845
 H          2.4398570747       -1.8851852891       -0.2474530278
 H          1.6354543655       -1.1772978802        1.1507193436
 H          1.8425829046        0.2181165049       -1.5664274699
 H          2.9235903807        0.5433945352       -0.2100174037
  12
        -20.03057339
 N          2.0122400806       -2.4471039945       -0.0172284495
 C          1.0532066198       -1.3557440115       -0.0158285196
 C          1.7286422250        0.0085847522       -0.0069232795
 F          0.8428611395        1.0123470443        0.0125488375
 Cl        -2.4340752342        1.0878520665        0.0324847242
 H          1.5576966230       -3.3522920057       -0.0384166710
 H         -1.1082479625        1.0926587018        0.0261792900
 H          2.6222125389       -2.3907797091       -0.8228708509
 H          0.4129037234       -1.4422750277        0.8694815628
 H          0.3833358821       -1.4280873736       -0.8822662459
 H          2.3674097898        0.1289561320       -0.8892744013
 H          2.3812452063        0.1053702144        0.8685263990
  12
        -20.03052635
 N          2.0624429678       -2.4442591228       -0.0681881789
 C          1.0825087965       -1.3741903348        0.0064650543
 C          1.7259604217        0.0045168369       -0.0452715388
 F          0.8195179524        0.9886973115        0.0018426486
 Cl        -2.4563313534        1.1081321448        0.0220744591
 H          2.7304905566       -2.3789908600        0.6897096457
 H         -1.1304973600        1.0928472035        0.0135248749
 H          1.6283299043       -3.3579344609       -0.0178563295
 H          0.4803069414       -1.4639305327        0.9186395614
 H          0.3804183388       -1.4715555172       -0.8305814294
 H          2.3123576217        0.1173715894       -0.9644665754
 H          2.4231221338        0.1369387884        0.7898821977
  12
        -20.03041615
 N          2.1765074866       -2.4342768137       -0.0690902650
 C          1.1453384250       -1.4132747172        0.0028136176
 C          1.7210638649       -0.0048479307       -0.0454044915
 F          0.7679438087        0.9339455274        0.0037152792
 Cl        -2.5028274085        1.1518350290        0.0230071602
 H          1.7874839102       -3.3678975553       -0.0199399516
 H         -1.1782460964        1.0916695257        0.0146673920
 H          2.8383655215       -2.3366980302        0.6910349264
 H          0.5450607297       -1.5329340223        0.9128327773
 H          0.4516473966       -1.5438477033       -0.8367192435
 H          2.3017480601        0.1386254668       -0.9640022928
 H          2.4105940552        0.1592559245        0.7905065795
  12
        -20.03009479
 N          0.1434624308       -0.4337274896       -0.6401832681
 C          1.3816670523       -1.0086528777       -0.1737729240
 C          2.5032001159        0.0126684138       -0.2749183389
 F          2.1006776817        1.1932046214        0.1990209059
 Cl        -2.7049924325       -0.0116955097        0.3739319672
 H         -0.0261036792        0.4199073584       -0.1230621454
 H         -2.0035179218       -1.0580191693       -0.0170233134
 H          0.2370791402       -0.1580999057       -1.6091170207
 H          1.6093109551       -1.9221981033       -0.7362621574
 H          1.2465140725       -1.3174589401        0.8704723018
 H          2.8014299534        0.1574691393       -1.3198741564
 H          3.3979197396       -0.3050288422        0.2738851730
  12
        -20.02999175
 N          0.1401804332       -0.4390754535       -0.6268216757
 C          1.3890044715       -1.0108669840       -0.1855952847
 C          2.5015861688        0.0198121534       -0.2897350555
 F          2.0987032177        1.1901266838        0.2086301205
 Cl        -2.7043225429       -0.0097519968        0.3736644518
 H         -0.0254245155        0.4078743504       -0.0983007255
 H         -2.0107413643       -1.0664700350       -0.0035059032
 H          0.2148428783       -0.1530752971       -1.5948031622
 H          1.6150552284       -1.9154649009       -0.7629829555
 H          1.2711375575       -1.3338190773        0.8564623110
 H          2.7813493621        0.1824076838       -1.3371842718
 H          3.4074711473       -0.2996524676        0.2393836555
  12
        -20.02939463
 N          0.3174591285       -1.5293062505       -0.5708989637
 C          1.5149102693       -1.1758307585        0.1600533918
 C          2.0187727310        0.1988818727       -0.2532395478
 F          1.0666926613        1.1243325896       -0.1193641810
 Cl        -2.1330025857        0.4916003551        0.3633130541
 H          0.4603519518       -1.4549956339       -1.5710487987
 H         -0.8456248907        0.7341833532        0.1592534307
 H         -0.0013914849       -2.4694672580       -0.3633800419
 H          2.2932901507       -1.9369463160        0.0217253780
 H          1.2705122514       -1.1621009706        1.2293283947
 H          2.3351674361        0.1923664555       -1.3026823244
 H          2.8876008472        0.5065637713        0.3413988451
