  12
        -20.03785094
 N          0.4580195005       -1.2823902487        0.5289418315
 C          1.1917808995       -0.8964902866       -0.6597684501
 C          1.5430029868        0.5814262508       -0.5989968885
 F          2.2122540481        0.8609483437        0.5216904585
 Cl        -2.4510779016        0.2690317737       -0.0002094029
 H          0.3960361626       -2.2918464920        0.6108898548
 H         -1.2897574715       -0.3515577151        0.2242931629
 H          0.9635316713       -0.9478857979        1.3410870237
 H          0.5937336673       -1.1249649922       -1.5500264856
 H          2.1153918143       -1.4850346910       -0.7377560673
 H          0.6331931977        1.1929599850       -0.6069160464
 H          2.1498776474        0.8925098253       -1.4579372677
