12
 energy: -20.045233873259 gnorm: 0.000222069385 xtb: 6.5.1 (fef0646)
N            1.28298839799531        0.62109129698668        0.09089181957665
C            2.73184312976614        0.57082343493047       -0.09091156863391
C            3.04779713253652        0.25632814869352       -1.54681054685918
F            2.70282071290917        1.33287778575813       -2.33159153118977
Cl           0.28871710562355       -2.09466005702356       -0.45794272256749
H            1.03763873705568        0.88854361612881        1.03717176034117
H            0.70798388250319       -0.82172611125828       -0.20306465222015
H            0.87348931267220        1.28848434686458       -0.55601885653395
H            3.12989831868683       -0.22917783390288        0.53593474010915
H            3.22372994234990        1.51490347652362        0.18146664370435
H            2.46303350491503       -0.59703519180810       -1.89902985708943
H            4.11710982298674        0.08552708810706       -1.69591522863740
