  23
        -23.60670206
 N         -3.7231510608       -0.3311925439       -0.0039351200
 C         -2.4806588001        0.4981165991        0.0018543659
 C         -1.2100894414       -0.3438317745        0.0024294925
 C          0.0695514930        0.4958101266        0.0018846618
 C          1.3440669565       -0.3508331216        0.0038143148
 C          2.6247606669        0.4870316957       -0.0033052082
 C          3.8891907184       -0.3605931017       -0.0016566316
 H         -4.5641154246        0.2542433756       -0.0037943590
 H         -3.7566854472       -0.9362881485        0.8219752128
 H         -3.7526527685       -0.9299906997       -0.8345506395
 H         -2.4876318427        1.1580004559        0.8766706114
 H         -2.4834139947        1.1630236470       -0.8691820950
 H         -1.2130657473       -1.0093255007       -0.8670205269
 H         -1.2130967900       -1.0085597494        0.8724608628
 H          0.0711894193        1.1624852633        0.8711477938
 H          0.0720075567        1.1594536444       -0.8697002996
 H          1.3401224500       -1.0207009598       -0.8630849649
 H          1.3437157691       -1.0118423099        0.8775111794
 H          2.6226452215        1.1583525705        0.8638824883
 H          2.6188057832        1.1490138691       -0.8776339293
 H          3.9279737373       -1.0115883698       -0.8756678500
 H          3.9335769434       -0.9999084064        0.8806304136
 H          4.7913402907        0.2531747429       -0.0087923527
