23
 energy: -23.608487249249 gnorm: 0.000447885378 xtb: 6.5.1 (fef0646)
N            0.94674076197695        0.04642468285121       -0.07246589102089
C            2.43026963656581        0.03872573543885       -0.08154209421412
C            2.95529040726890       -1.01181154219653       -1.05361896559242
C            4.48341695632612       -1.02974323288959       -1.07099816838798
C            5.01948478306331       -2.08068056311959       -2.04131042906604
C            6.54586223082473       -2.11031660914725       -2.06941990030388
C            7.07130749730262       -3.16189774670946       -3.04003832342728
H            0.58935645009205        0.74865743664076        0.58492034115794
H            0.59104542251361       -0.87643263083704        0.20379473877625
H            0.58998272812056        0.25994045447745       -1.01140365009085
H            2.79379723637789       -0.17674387138211        0.92300160332289
H            2.79173850074292        1.02416201814217       -0.37480945690178
H            2.60147340021549       -0.80275689808716       -2.06392874930687
H            2.60236436455993       -2.00287174629983       -0.76566019363336
H            4.86406955027175       -1.24489219331655       -0.07073222046416
H            4.86344480854151       -0.04965182637288       -1.36545942947177
H            4.65255943272368       -1.87255852765370       -3.04895466611369
H            4.65329063012056       -3.06864917358139       -1.75298200188961
H            6.92592050373015       -2.32457481644995       -1.06786667140041
H            6.92530410317544       -1.12898749491814       -2.36352282725407
H            6.72626249390443       -4.15370455890274       -2.75520982734805
H            8.15889013558302       -3.16914055127889       -3.04723480176349
H            6.72561796599857       -2.95767634440764       -4.05129841560636
