  23
        -32.85205197
 N         -2.4124833648        1.7304422139       -0.6178111455
 C         -1.3680050355        2.0138827430        0.4100843711
 C         -0.1450412870        1.1652137211        0.2420293480
 C          1.1070842878        1.7420978743        0.0838504138
 C          2.2325015119        0.9592825519       -0.0657488673
 C          2.1427349012       -0.4315053263       -0.0594583900
 C          3.3197395957       -1.2890611039       -0.2198082670
 C          4.5719383903       -0.9020987012       -0.0182608427
 C          0.8811128332       -1.0039349926        0.0929659968
 C         -0.2410163485       -0.2174482721        0.2421622451
 Cl        -3.4648971860       -1.5891197783        0.0294297029
 H         -3.2233619247        2.3587833773       -0.5307358179
 H         -2.7558410334        0.7595267290       -0.5266432022
 H         -2.0267720860        1.8342405087       -1.5654516179
 H         -1.7792080246        1.8571446834        1.4139011231
 H         -1.0879017205        3.0723899549        0.3680423756
 H          1.1939501193        2.8156705991        0.0769002784
 H          3.1915530129        1.4278691563       -0.2028826058
 H          3.1307807364       -2.3095441072       -0.5128025666
 H          4.8083500741        0.0938956941        0.2991252359
 H          5.3985108378       -1.5741918041       -0.1482838686
 H          0.7904394062       -2.0773515817        0.0954839769
 H         -1.2094715639       -0.6765938434        0.3488800218
