  12
  -15.818362290000000       0.13265363844268055      !mtd6
 N          0.8723129790        0.8754694883       -0.0003327338
 C          1.5504157328       -0.4128759233       -0.0015089753
 C          3.0619511731       -0.2887409171        0.0011967777
 Cl        -2.3080815723       -0.1191523864        0.0002343700
 H          1.1681189245        1.4145369603       -0.8070049628
 H          1.1681938136        1.4107027828        0.8085388842
 H         -1.0325915258        0.2861952201        0.0000892112
 H          1.2113194669       -0.9868416048       -0.8747813491
 H          1.2086445735       -0.9897747739        0.8677095946
 H          3.4122913900        0.2589994981       -0.8748685108
 H          3.5542695988       -1.2631310750       -0.0000360316
 H          3.4094172884        0.2552549952        0.8804535607
  12
  -15.818362140000000       0.13263258410431183      !mtd4
 N          0.8722645344        0.8744533897       -0.0002606318
 C          1.5512573260       -0.4134207440       -0.0012141162
 C          3.0626981079       -0.2881752446        0.0010082441
 Cl        -2.3087018179       -0.1187218534        0.0001703779
 H          1.1688827833        1.4117194172       -0.8073426381
 H          1.1666480920        1.4119501655        0.8081544738
 H         -1.0329523368        0.2857800686        0.0000142400
 H          1.2122937682       -0.9881421495       -0.8740503492
 H          1.2101883397       -0.9900545508        0.8684575174
 H          3.5558266820       -1.2623819806        0.0002993822
 H          3.4099721943        0.2566545282        0.8798622915
 H          3.4123641900        0.2591446039       -0.8753126542
  12
  -15.818346030000001       0.13039069127015976      !mtd1
 N          0.8728465840        0.8785868041        0.0001466614
 C          1.5481933357       -0.4112075299        0.0005304904
 C          3.0599792431       -0.2904024174       -0.0001016315
 Cl        -2.3066263045       -0.1204654449       -0.0002058341
 H          1.1700953553        1.4146066292        0.8078224684
 H          1.1694131000        1.4156973434       -0.8077122121
 H         -1.0317741288        0.2867962626        0.0000019189
 H          1.2060778005       -0.9864151403       -0.8707431590
 H          1.2069351438       -0.9853777864        0.8717596151
 H          3.4098087153        0.2540908236       -0.8783952360
 H          3.5500958444       -1.2659017663        0.0003862046
 H          3.4103902170        0.2552294086        0.8769718476
  12
  -15.818333440000000       0.12866505926046051      !mtd4
 N          0.8732172567        0.8747326649        0.0012302302
 C          1.5519043476       -0.4132747635        0.0050202495
 C          3.0633200503       -0.2882341560       -0.0029489216
 Cl        -2.3096240330       -0.1188768526       -0.0011648109
 H          1.1668675871        1.4077027961       -0.8098302539
 H          1.1707184867        1.4162704948        0.8056797768
 H         -1.0338028091        0.2855060256       -0.0002244694
 H          1.2075688312       -0.9937654379       -0.8618570191
 H          1.2159996117       -0.9839845580        0.8805665318
 H          3.4161107007        0.2629507367        0.8699375804
 H          3.4075649488        0.2527791455       -0.8853250792
 H          3.5562734185       -1.2622556404        0.0002451684
  12
  -15.818329660000000       0.12815142998427539      !mtd3
 N          0.8733690696        0.8774551294       -0.0007382892
 C          1.5496826640       -0.4118394682       -0.0032276345
 C          3.0613492440       -0.2897166563        0.0023083054
 Cl        -2.3080022708       -0.1200124340        0.0006177162
 H          1.1693800336        1.4114137339        0.8086800281
 H          1.1703573392        1.4170054517       -0.8068503983
 H         -1.0328517357        0.2863857919       -0.0001607402
 H          1.2112951758       -0.9837740600       -0.8781116964
 H          1.2056472627       -0.9898251367        0.8643737251
 H          3.4080787924        0.2521017565        0.8834743286
 H          3.4138352870        0.2592867610       -0.8718415967
 H          3.5523645146       -1.2647178486       -0.0000764339
  12
  -15.817590129999999        5.8594789737467165E-002 !mtd1
 N          0.8857525552        1.3287565353       -0.1442162417
 C          1.7843527292        0.2828892245       -0.6195666086
 C          1.9877793993       -0.8157544702        0.4064823022
 Cl        -1.9547592194       -0.3845291252        0.1427297079
 H          0.8361227209        2.0914311102       -0.8118945863
 H          1.2500600504        1.7273855468        0.7143481251
 H         -0.8183037503        0.3125081797        0.0268501854
 H          2.7518788840        0.7202070844       -0.9049301756
 H          1.3679996169       -0.1388619861       -1.5435465355
 H          2.6456341343       -1.6061578579        0.0393320325
 H          1.0377326996       -1.2765077386        0.6796268875
 H          2.4265731304       -0.4196844872        1.3231358852
  12
  -15.817582950000000        5.8151282941238405E-002 !mtd4
 N          0.8864613050        1.3311350472       -0.1439108147
 C          1.7854812974        0.2850700265       -0.6180309135
 C          1.9813181417       -0.8174187627        0.4053889617
 Cl        -1.9528314331       -0.3857432305        0.1423155816
 H          0.8401437210        2.0954229731       -0.8099771402
 H          1.2482176495        1.7272386774        0.7168833478
 H         -0.8173400713        0.3129080827        0.0267320995
 H          2.7553253821        0.7214584534       -0.8968602758
 H          1.3731837288       -0.1328106571       -1.5455853365
 H          1.0289684809       -1.2783962209        0.6708558109
 H          2.4145442747       -0.4249969079        1.3262786174
 H          2.6405436726       -1.6070073996        0.0396456703
  12
  -15.817582610000001        5.8130364672738952E-002 !mtd5
 N          0.8864109441        1.3308506462       -0.1439756618
 C          1.7851129743        0.2846225773       -0.6183576363
 C          1.9822946047       -0.8171007742        0.4056222087
 Cl        -1.9530774757       -0.3855790186        0.1424042546
 H          0.8394419574        2.0947148891       -0.8104890399
 H          1.2488632932        1.7275484307        0.7162472178
 H         -0.8174851252        0.3128826198        0.0267398171
 H          2.7545696884        0.7210243918       -0.8985155120
 H          1.3719113084       -0.1339838255       -1.5451827164
 H          2.4163961606       -0.4238345559        1.3259790456
 H          2.6414499006       -1.6067394908        0.0397728533
 H          1.0305469776       -1.2780765703        0.6723171552
  12
  -15.817577900000000        5.7841358072473682E-002 !mtd6
 N          0.8863260571        1.3312040570        0.1398531744
 C          1.7852737818        0.2864833411        0.6170704838
 C          1.9821561481       -0.8183050323       -0.4036590641
 Cl        -1.9530082968       -0.3859616776       -0.1408729915
 H          1.2491075207        1.7262267243       -0.7208635752
 H          0.8385206553        2.0965419915        0.8048023979
 H         -0.8173355979        0.3127452081       -0.0274962636
 H          1.3720113775       -0.1297321986        1.5459511117
 H          2.7540236345        0.7234051092        0.8955095537
 H          2.6413514208       -1.6071055545       -0.0354788644
 H          2.4161979765       -0.4279316734       -1.3250384731
 H          1.0302971125       -1.2798884429       -0.6688829134
  12
  -15.817576590000000        5.7761231893144617E-002 !mtd2
 N          0.8864995587        1.3314490149        0.1397339831
 C          1.7862762904        0.2872343207        0.6165014319
 C          1.9811054467       -0.8188160749       -0.4032571802
 Cl        -1.9530298886       -0.3861597204       -0.1407200228
 H          1.2478662253        1.7259410680       -0.7218217633
 H          0.8397069744        2.0972086173        0.8042628435
 H         -0.8174578998        0.3127453122       -0.0274281779
 H          1.3747630102       -0.1278541389        1.5466653652
 H          2.7555943213        0.7244118927        0.8925528027
 H          1.0284665958       -1.2806001975       -0.6662603148
 H          2.6405828714       -1.6072256916       -0.0353450252
 H          2.4135746631       -0.4296629772       -1.3258549397
  12
  -15.817564510000000        5.7027569621049233E-002 !mtd4
 N          0.8865112771        1.3300320299        0.1402840613
 C          1.7829330893        0.2838455393        0.6190688926
 C          1.9874655972       -0.8164119991       -0.4050445723
 Cl        -1.9543594881       -0.3851639696       -0.1413909227
 H          1.2528331512        1.7263360627       -0.7183219761
 H          0.8366250679        2.0942188536        0.8064179727
 H         -0.8182593234        0.3127651023       -0.0275312010
 H          1.3633398509       -0.1365697499        1.5432115092
 H          2.7494915723        0.7199970929        0.9061737872
 H          2.4318115369       -0.4225636291       -1.3202643589
 H          1.0371417813       -1.2742766280       -0.6820899746
 H          2.6407665396       -1.6085425536       -0.0341663405
