  12
        -15.81836229
 N          0.8723129790        0.8754694883       -0.0003327338
 C          1.5504157328       -0.4128759233       -0.0015089753
 C          3.0619511731       -0.2887409171        0.0011967777
 Cl        -2.3080815723       -0.1191523864        0.0002343700
 H          1.1681189245        1.4145369603       -0.8070049628
 H          1.1681938136        1.4107027828        0.8085388842
 H         -1.0325915258        0.2861952201        0.0000892112
 H          1.2113194669       -0.9868416048       -0.8747813491
 H          1.2086445735       -0.9897747739        0.8677095946
 H          3.4122913900        0.2589994981       -0.8748685108
 H          3.5542695988       -1.2631310750       -0.0000360316
 H          3.4094172884        0.2552549952        0.8804535607
  12
        -15.81759013
 N          0.8857525552        1.3287565353       -0.1442162417
 C          1.7843527292        0.2828892245       -0.6195666086
 C          1.9877793993       -0.8157544702        0.4064823022
 Cl        -1.9547592194       -0.3845291252        0.1427297079
 H          0.8361227209        2.0914311102       -0.8118945863
 H          1.2500600504        1.7273855468        0.7143481251
 H         -0.8183037503        0.3125081797        0.0268501854
 H          2.7518788840        0.7202070844       -0.9049301756
 H          1.3679996169       -0.1388619861       -1.5435465355
 H          2.6456341343       -1.6061578579        0.0393320325
 H          1.0377326996       -1.2765077386        0.6796268875
 H          2.4265731304       -0.4196844872        1.3231358852
