  17
        -17.17150116
 N         -1.7205294849       -0.0001486446       -0.4852763977
 C         -0.8659953064       -0.0038410097        0.7400118510
 C          0.6502517131        0.0000483014        0.4630700689
 C          1.0992525423       -1.2642264581       -0.2761073338
 C          1.0933766892        1.2679932974       -0.2731778418
 H         -1.5575098076        0.8355637238       -1.0642146202
 H         -2.7221583133       -0.0044988470       -0.2409957370
 H         -1.5523123569       -0.8290965987       -1.0730265258
 H         -1.1252760266       -0.8802452120        1.3456453996
 H         -1.1286041844        0.8665235556        1.3530639231
 H          1.1567341829        0.0000392035        1.4452842985
 H          2.1843609510       -1.3003668194       -0.3837362301
 H          0.6756099272       -1.3050729723       -1.2789490274
 H          0.7915764642       -2.1683492395        0.2503559189
 H          0.6708155105        1.3084820396       -1.2761222687
 H          2.1781457322        1.3099171617       -0.3794715725
 H          0.7804057336        2.1694779834        0.2548087898
