  17
        -17.17150116
 N         -1.7205294849       -0.0001486446       -0.4852763977
 C         -0.8659953064       -0.0038410097        0.7400118510
 C          0.6502517131        0.0000483014        0.4630700689
 C          1.0992525423       -1.2642264581       -0.2761073338
 C          1.0933766892        1.2679932974       -0.2731778418
 H         -1.5575098076        0.8355637238       -1.0642146202
 H         -2.7221583133       -0.0044988470       -0.2409957370
 H         -1.5523123569       -0.8290965987       -1.0730265258
 H         -1.1252760266       -0.8802452120        1.3456453996
 H         -1.1286041844        0.8665235556        1.3530639231
 H          1.1567341829        0.0000392035        1.4452842985
 H          2.1843609510       -1.3003668194       -0.3837362301
 H          0.6756099272       -1.3050729723       -1.2789490274
 H          0.7915764642       -2.1683492395        0.2503559189
 H          0.6708155105        1.3084820396       -1.2761222687
 H          2.1781457322        1.3099171617       -0.3794715725
 H          0.7804057336        2.1694779834        0.2548087898
  17
        -17.17069488
 N         -1.9408279640       -0.5148254161        0.1617472319
 C         -0.8773919124        0.4683696107       -0.2087893507
 C          0.5254901980        0.0891507875        0.2992728905
 C          1.0483766189       -1.1863843395       -0.3684019209
 C          1.5120417808        1.2502836704        0.1211407854
 H         -2.8711267735       -0.1967435538       -0.1477056689
 H         -1.9876550849       -0.6481218378        1.1821041403
 H         -1.7793689706       -1.4368204087       -0.2678463772
 H         -1.1561150487        1.4512037241        0.1889138411
 H         -0.8520036970        0.5861897698       -1.2974217512
 H          0.4326988591       -0.1107092049        1.3801803059
 H          1.1247392516       -1.0573807166       -1.4479358684
 H          0.3966056020       -2.0403682747       -0.1836508440
 H          2.0407921028       -1.4504850538       -0.0010981053
 H          1.6349896157        1.4982073964       -0.9329471288
 H          2.4981026167        1.0027347468        0.5156364716
 H          1.1712844135        2.1514081971        0.6322797164
