21
 energy: -29.948496183247 gnorm: 0.000253880020 xtb: 6.5.1 (fef0646)
N            3.07088103551505        3.32923337571603        1.68040046008470
C            2.55093279188007        1.99023176766881        2.08917441137523
C            3.03887973098551        0.95887226033059        1.07038492112320
C            4.54522821494983        0.99891533626222        1.01073576081374
C            5.30634303137790        0.23186493531993        1.88679409324033
C            6.68530728307882        0.31897889604797        1.88693774199566
C            7.30284438145343        1.19231120970090        1.00415469873431
F            8.63288951584195        1.29137315553987        1.00733780795845
C            6.57348205683342        1.96424243649023        0.11610098612768
C            5.19094289568948        1.86703337276449        0.12892635180080
H            3.07660829368586        4.00259720535095        2.45312921207497
H            2.51581402043970        3.71555342237080        0.90798474642647
H            4.04512482627595        3.15878994586934        1.32975546580656
H            1.46314646112873        2.01751331221780        2.14522676810996
H            2.95271483715580        1.75241487836530        3.07494132616472
H            2.60928484827318        1.16690799265490        0.08950818601349
H            2.69841750110850       -0.02764166739566        1.38090167920571
H            4.81662182325659       -0.45132505270525        2.56346051436840
H            7.28599105315405       -0.28087143342479        2.55091803107283
H            7.08489602564154        2.61402896354826       -0.57535892165662
H            4.62676937227473        2.41139568730756       -0.61785424084070
