  21
        -29.94431187
 N         -2.9672979400        0.8877350381       -1.0103234367
 C         -2.9691668550       -0.4171482965       -0.2881277420
 C         -2.0357806384       -0.4324723176        0.9230772268
 C         -0.5888769583       -0.2569639616        0.5651725932
 C          0.0558788918        0.9646872667        0.7607717560
 C          1.3838368716        1.1258388102        0.4229747078
 C          2.1017160941        0.0661224652       -0.1246889553
 F          3.3692339316        0.2235728887       -0.4650959638
 C          1.4673239329       -1.1575802076       -0.3207179464
 C          0.1392768823       -1.3137443726        0.0194295654
 H         -3.2790772996        1.6538400196       -0.3954378566
 H         -3.5982101918        0.8721203291       -1.8261776486
 H         -2.0245070975        1.1240801984       -1.3530917155
 H         -2.6819727909       -1.2128834598       -0.9862347767
 H         -3.9968638509       -0.6498555600        0.0212116145
 H         -2.1496382513       -1.3699322922        1.4810056919
 H         -2.3330190669        0.3567898861        1.6218048712
 H         -0.4881790112        1.7885428444        1.1942594928
 H          1.8931477095        2.0640088931        0.5804412360
 H          2.0399708340       -1.9726357137       -0.7359825490
 H         -0.3412668296       -2.2681284181       -0.1265079838
