  16
        -23.04152325
 O         -0.7745281721        1.3931831008        0.8477996984
 C         -1.6452598553        1.1742565613       -0.2388774830
 C         -1.2894951577       -0.0558849263       -1.0679436793
 C         -1.3838293512       -1.3515258375       -0.2709562178
 N         -0.5045128968       -1.3753458863        0.8880580424
 Cl         2.2989734071        0.0738663414       -0.1646848771
 H          0.1567766143        1.2716524129        0.5565178225
 H         -1.6486799231        2.0832017312       -0.8545245089
 H         -2.6556320857        1.0795388535        0.1763453553
 H         -0.2716155905        0.0573979603       -1.4544221497
 H         -1.9354522673       -0.1108896286       -1.9529748852
 H         -1.1324470404       -2.2039522302       -0.9151385398
 H         -2.4221184822       -1.5137339675        0.0477768567
 H         -0.7966158437       -0.6426654500        1.5330758929
 H          1.1974450105       -0.5905629265        0.2681313204
 H         -0.5883372229       -2.2520968379        1.3909346175
