16
 energy: -23.047474392800 gnorm: 0.000456591401 xtb: 6.5.1 (fef0646)
O            3.18060857136374       -1.71520159709067       -0.30247678491666
C            2.31691443814891       -0.60614415337471       -0.38840323580749
C            2.60585033133327        0.25351537637030       -1.62850820058225
C            3.85672289424901        1.11805651002284       -1.50382497244204
N            5.04238553138678        0.29833670690536       -1.22690904350017
Cl           5.23218677376661       -0.18424925446364        1.59494609947705
H            3.83261701537350       -1.54761527269580        0.39396989093866
H            2.37746547718026        0.01260275921827        0.51074061114366
H            1.29609383667781       -0.99693363552275       -0.47319739144558
H            1.75189430762312        0.90671056519108       -1.80962830347817
H            2.70897847532488       -0.41624656234034       -2.48518594275364
H            3.74125979588408        1.82494014901162       -0.67833068665566
H            3.98084453644399        1.69028359107865       -2.43113789034575
H            4.96354407756053       -0.60924007137304       -1.67697787995878
H            5.14656601557319        0.06808909630444        0.14982429219942
H            5.89948792211293        0.75844579274309       -1.51234056189759
