  17
        -17.27790184
 N         -2.4584325628        0.3022755348        0.0006739127
 C         -1.2128569528       -0.5237887444       -0.0006550927
 C          0.0578507527        0.3196396648       -0.0009813611
 C          1.3417971793       -0.5164930839        0.0005786521
 C          2.6065767827        0.3326222641        0.0002047263
 H         -2.4924590203        0.9029472358       -0.8273878858
 H         -2.4914033487        0.9023455059        0.8292779344
 H         -3.2953465397       -0.2875239475        0.0011904607
 H         -1.2189622802       -1.1852636153       -0.8745775419
 H         -1.2178434172       -1.1860408877        0.8726853214
 H          0.0532207896        0.9853921249        0.8684594537
 H          0.0540511694        0.9836684591       -0.8717440062
 H          1.3403101457       -1.1837101215       -0.8698974509
 H          1.3395444675       -1.1817827168        0.8725315534
 H          3.5086949502       -0.2817335986        0.0009218606
 H          2.6481248322        0.9781810138        0.8783389199
 H          2.6485313831        0.9768009120       -0.8789979513
  17
        -17.27775737
 N         -2.0520500348        0.2894729909       -0.5672802748
 C         -1.3200710365       -0.4912675587        0.4753621086
 C          0.0923291239        0.0249106366        0.7458691764
 C          1.0616592888       -0.1859182637       -0.4204781060
 C          2.4779953345        0.2837277092       -0.1105946141
 H         -3.0100251509       -0.0557681110       -0.6829551478
 H         -1.5861782440        0.2219182146       -1.4774964710
 H         -2.1014210023        1.2799359213       -0.3097268081
 H         -1.2781848251       -1.5443320992        0.1745322436
 H         -1.9081416203       -0.4700246165        1.4013801036
 H          0.5009084746       -0.4632910787        1.6388141239
 H          0.0475819588        1.0903938276        0.9948213991
 H          0.6869258401        0.3359092575       -1.3081187029
 H          1.0732976102       -1.2481094133       -0.6937198641
 H          2.4965997288        1.3472072715        0.1312235222
 H          3.1522297007        0.1266613390       -0.9544612949
 H          2.8928383805       -0.2513543667        0.7446314949
  17
        -17.27733227
 N         -2.3403477574        0.2570221494        0.1228289631
 C         -0.9427968665       -0.1671280475        0.4415205395
 C          0.0074129126       -0.0042305649       -0.7405543831
 C          1.4355130471       -0.4944328774       -0.4656431028
 C          2.1795799074        0.3321757880        0.5758547858
 H         -2.3617046628        1.2406296883       -0.1592525410
 H         -2.9563301716        0.1447363559        0.9329126602
 H         -2.7205100188       -0.3015835949       -0.6461259798
 H         -0.9502502641       -1.2130496408        0.7692614816
 H         -0.5806545234        0.4111583651        1.2984200520
 H          0.0344967364        1.0482539961       -1.0419363403
 H         -0.4089167415       -0.5386592114       -1.6021898509
 H          2.0075711916       -0.4938725688       -1.4026762164
 H          1.4020907132       -1.5448196244       -0.1519216045
 H          3.2052999682       -0.0159959713        0.7113868618
 H          1.6924261135        0.2844743059        1.5499912828
 H          2.2263855451        1.3825636519        0.2853532655
  17
        -17.27728855
 N         -1.8552266300        0.5989893326        0.3427912136
 C         -1.0625152184       -0.1681188355       -0.6649685238
 C          0.0441747297       -1.0223116587       -0.0486208372
 C          1.1585352275       -0.2234902683        0.6378938023
 C          1.9687662851        0.6472684276       -0.3144275765
 H         -2.2560900080       -0.0315683089        1.0438797070
 H         -2.6256399405        1.1079389323       -0.1020414378
 H         -1.2725580559        1.2858648422        0.8319990745
 H         -0.6396547854        0.5276315271       -1.3975277841
 H         -1.7503421224       -0.8065364262       -1.2336904915
 H          0.4910970760       -1.6600672488       -0.8207197126
 H         -0.4081326185       -1.7148086495        0.6707530453
 H          1.8353325411       -0.9165646353        1.1550429530
 H          0.7294372696        0.3948054376        1.4342637371
 H          1.3509698480        1.4115520999       -0.7862232752
 H          2.4142101284        0.0505463840       -1.1115117413
 H          2.7811097086        1.1631886915        0.2010773306
  17
        -17.27574164
 N         -1.7621149395        0.7885159895        0.2918227160
 C         -1.1331605277       -0.5633789354        0.1857767417
 C          0.0093899802       -0.6230233513       -0.8408660835
 C          1.4143177295       -0.5609112557       -0.2254226433
 C          1.7234561739        0.7444698136        0.4942351789
 H         -1.0701039648        1.5050788848        0.5336525895
 H         -2.4928064608        0.8040433724        1.0107514613
 H         -2.1905610670        1.0580224917       -0.5994208357
 H         -1.9192653166       -1.2839438907       -0.0749114120
 H         -0.7691646576       -0.8792841350        1.1702118799
 H         -0.1112616773        0.1958841959       -1.5578781739
 H         -0.0791326646       -1.5394065406       -1.4389420907
 H          2.1630631213       -0.7250862374       -1.0116265764
 H          1.5402867477       -1.4026999876        0.4666760770
 H          1.0602319692        0.8977276353        1.3457509349
 H          1.6102820806        1.5994244117       -0.1734265980
 H          2.7458026773        0.7630457486        0.8769328439
  17
        -17.27497619
 N         -1.5878450869        0.7662865581        0.4614544849
 C         -1.3103872472       -0.5609449684       -0.1641823944
 C          0.0563488600       -0.6740980372       -0.8421313472
 C          1.2634333303       -0.5804513207        0.1129115663
 C          1.7898296614        0.8355277719        0.3167605063
 H         -2.5549457277        0.8196588730        0.7987098164
 H         -1.4491904995        1.5250277323       -0.2146533750
 H         -0.9766385793        0.9322742911        1.2682820125
 H         -2.1006180398       -0.7664198604       -0.8974746003
 H         -1.4092136064       -1.3416013934        0.5989750375
 H          0.1466277205        0.0955943181       -1.6160092898
 H          0.0978851457       -1.6274170657       -1.3856971002
 H          2.0829119602       -1.2040165069       -0.2699327911
 H          0.9977667924       -1.0308703373        1.0768092239
 H          2.1248216153        1.2697463114       -0.6263973894
 H          2.6375189348        0.8575731018        1.0043815664
 H          1.0281194807        1.4995529772        0.7219696377
  17
        -17.27492783
 N         -1.6476187376        0.7916214216       -0.4040409119
 C         -1.2690900954       -0.5812594597        0.0481002567
 C          0.0407134490       -0.6605433551        0.8388681599
 C          1.3273020070       -0.5881252964       -0.0047082181
 C          1.7734907870        0.8217457774       -0.3718417691
 H         -1.0009080657        1.1453920874       -1.1159050042
 H         -1.6491644466        1.4477748739        0.3839162640
 H         -2.5851726091        0.7969989000       -0.8199138909
 H         -1.2214245666       -1.2497996030       -0.8189711054
 H         -2.0905251013       -0.9655301322        0.6667431869
 H          0.0460191544       -1.6005398299        1.4069603937
 H          0.0571286070        0.1275293017        1.5987314048
 H          1.2006008343       -1.1923455008       -0.9110857386
 H          2.1440984612       -1.0758808757        0.5448230278
 H          1.9053194377        1.4384115235        0.5183206417
 H          1.0527101125        1.3245103190       -1.0135505883
 H          2.7248195441        0.8167483548       -0.9077299815
