  17
        -17.16740232
 N         -1.8853684795       -0.5828775310       -0.3085886485
 C         -1.0643616522        0.2060466069        0.6558225876
 C          0.0534849803        1.0092331505       -0.0084227651
 C          1.1611110894        0.1622976271       -0.6485159195
 C          1.9947926081       -0.6312102372        0.3490968143
 H         -2.6596378664       -1.0715358168        0.1654166836
 H         -1.3272130609       -1.2986318535       -0.7949132969
 H         -2.3037020850        0.0269414716       -1.0257763944
 H         -0.6486397786       -0.4674328952        1.4141467578
 H         -1.7331667542        0.8826980513        1.2054396959
 H          0.5067324595        1.6889712205        0.7243303722
 H         -0.3933302210        1.6641068533       -0.7671688570
 H          1.8264520403        0.8160622168       -1.2298402484
 H          0.7212929076       -0.5160638817       -1.3893947246
 H          2.4600501176        0.0246339605        1.0878734292
 H          2.7986579681       -1.1851688991       -0.1425390766
 H          1.3913286375       -1.3587317251        0.8940192973
  17
        -17.16740101
 N         -2.0563793048       -0.4402652137       -0.4473279280
 C         -1.3260561585        0.4076455273        0.5395717014
 C          0.1088612480        0.7330565094        0.1246524353
 C          1.0482476572       -0.4768033715        0.1254470808
 C          2.4868958644       -0.1251126867       -0.2333275172
 H         -1.6169975246       -1.3649731575       -0.5582738300
 H         -2.0832508635        0.0073741609       -1.3747705183
 H         -3.0325208421       -0.6012289269       -0.1570882309
 H         -1.3270153610       -0.0922731227        1.5161229724
 H         -1.8936408073        1.3369546476        0.6848527132
 H          0.5208313426        1.5027882046        0.7895675065
 H          0.1019270231        1.1887252297       -0.8721778168
 H          0.6696575560       -1.2348325020       -0.5707639918
 H          1.0195816544       -0.9555263095        1.1126284323
 H          2.9084423716        0.5939792436        0.4720879845
 H          2.5515305549        0.3210377036       -1.2277468696
 H          3.1361202797       -1.0043325618       -0.2278286635
  17
        -17.16667837
 N         -2.4632756415       -0.2769877084        0.0112584620
 C         -1.2109054299        0.5350452647       -0.0170838428
 C          0.0536231176       -0.3190796964        0.0096371224
 C          1.3493220818        0.4998344137       -0.0178798152
 C          2.6090714174       -0.3560601332        0.0109146097
 H         -2.5130127570       -0.8564520704        0.8614581084
 H         -2.5159539294       -0.9098658710       -0.7997877306
 H         -3.3042992136        0.3189487992       -0.0064360549
 H         -1.2111931619        1.2267128588        0.8345667478
 H         -1.2132473033        1.1690363918       -0.9124919808
 H          0.0399299261       -1.0133524201       -0.8383493381
 H          0.0412323159       -0.9567583740        0.9009898152
 H          1.3547273003        1.1965872446        0.8300658402
 H          1.3547652224        1.1382270793       -0.9105989193
 H          3.5166925252        0.2525805713       -0.0082854497
 H          2.6515094863       -1.0304097801       -0.8467289236
 H          2.6503392819       -0.9729482374        0.9108848602
  17
        -17.16651018
 N         -1.7464202231       -0.8163866375       -0.0683435475
 C         -1.1299713970        0.4218431634        0.4930222900
 C          0.0057531861        0.9903118628       -0.3712190585
 C          1.4177600653        0.5618653095        0.0555278566
 C          1.7041928797       -0.9256075006       -0.0883921241
 H         -2.1626838223       -0.6359964868       -0.9933614886
 H         -2.4998315052       -1.1723517890        0.5388249013
 H         -1.0608499218       -1.5757017509       -0.1817350796
 H         -0.7682606792        0.2282923811        1.5104001793
 H         -1.9275421252        1.1692196653        0.6101434781
 H         -0.0473148463        2.0880220395       -0.3663098778
 H         -0.1636828417        0.7060958396       -1.4160920714
 H          1.5880190392        0.8712504119        1.0949442824
 H          2.1580354780        1.1263171265       -0.5288613315
 H          1.0677999860       -1.5232003699        0.5657016344
 H          2.7390750329       -1.1657393839        0.1693303555
 H          1.5403696981       -1.2647381406       -1.1130934561
  17
        -17.16643038
 N         -1.7528600059       -0.8129017436       -0.0701020076
 C         -1.1257068913        0.4174347037        0.4967332023
 C          0.0051500367        0.9871850015       -0.3734712001
 C          1.4196244264        0.5640638651        0.0501399698
 C          1.7062945694       -0.9243942747       -0.0827201870
 H         -2.5007489916       -1.1725243739        0.5417020416
 H         -1.0709054180       -1.5730702366       -0.1989871590
 H         -2.1787266952       -0.6215970934       -0.9885475391
 H         -0.7555212584        0.2128477782        1.5089002923
 H         -1.9183525803        1.1676316477        0.6282758427
 H         -0.0513566502        2.0847164705       -0.3726408145
 H         -0.1668785158        0.6984731534       -1.4167043027
 H          1.5941738914        0.8820478803        1.0862510544
 H          2.1566727697        1.1244323374       -0.5421776110
 H          1.5410303224       -1.2714963179       -1.1045065771
 H          1.0706890185       -1.5170044438        0.5766422670
 H          2.7416559933       -1.1622769011        0.1753522529
  17
        -17.16642409
 N         -2.3518392959       -0.2297498568       -0.0362362607
 C         -0.9499683853       -0.1094891866        0.4642126740
 C          0.0104874541        0.4329254689       -0.5902524367
 C          1.4474285388        0.6433871357       -0.0910397811
 C          2.1873315475       -0.6448848193        0.2443558350
 H         -2.7222114564        0.6848580061       -0.3318950694
 H         -2.9852933140       -0.5993407854        0.6882227578
 H         -2.4062232099       -0.8628368082       -0.8469851809
 H         -0.6105789134       -1.0906806832        0.8162715007
 H         -0.9396730961        0.5424466634        1.3465582427
 H         -0.3908638537        1.3797978413       -0.9728007854
 H          0.0184504992       -0.2413681186       -1.4543235370
 H          1.4311620005        1.3016985409        0.7869362914
 H          2.0182261286        1.1979281549       -0.8488107493
 H          3.2159368959       -0.4521956843        0.5601698475
 H          2.2339696630       -1.3121751232       -0.6185574442
 H          1.7011521674       -1.1918141050        1.0537386813
  17
        -17.16609847
 N         -1.6562363356       -0.8634188276       -0.0240013214
 C         -1.2460969636        0.5179929242        0.3629673628
 C          0.0320514709        1.0232502552       -0.3144529837
 C          1.3515939840        0.4692640428        0.2548458681
 C          1.7479744529       -0.9095126409       -0.2563323707
 H         -1.7206749777       -0.9618811248       -1.0475591748
 H         -2.5825172363       -1.1001876794        0.3622718936
 H         -1.0007620343       -1.5755407768        0.3250295488
 H         -1.1396522791        0.5751420421        1.4533321739
 H         -2.0789581265        1.1927059742        0.1192657321
 H          0.0517283050        2.1200411497       -0.2425840575
 H         -0.0184017464        0.8146626611       -1.3890811620
 H          1.2994371191        0.4645392923        1.3509673117
 H          2.1651086933        1.1706895318        0.0195929054
 H          1.0366343895       -1.6788105871        0.0421004727
 H          2.7248473089       -1.2170657942        0.1261245694
 H          1.8102781497       -0.9258319688       -1.3463403767
  17
        -17.16592707
 N         -1.6043143817       -0.8738483301       -0.0060706016
 C         -1.2894831278        0.5534213503        0.2893986009
 C          0.0469909314        1.0436358853       -0.2724919641
 C          1.2987776392        0.3953631715        0.3527312035
 C          1.7651445976       -0.8795862520       -0.3388315959
 H         -0.9672463513       -1.5166513313        0.4847986505
 H         -1.5466515228       -1.0688774559       -1.0161153814
 H         -2.5600326887       -1.1159986558        0.2958868549
 H         -1.3143637402        0.7078384841        1.3755163351
 H         -2.1047256172        1.1729099288       -0.1096815861
 H          0.1008415884        2.1334719634       -0.1395808898
 H          0.0646952593        0.8933457725       -1.3580753560
 H          1.1139264478        0.2045296833        1.4174183258
 H          2.1275601659        1.1179196238        0.3414283188
 H          2.6574492320       -1.2958984358        0.1359906263
 H          2.0159369115       -0.6929272950       -1.3851403565
 H          1.0019088913       -1.6573521627       -0.3251965148
  17
        -17.16440848
 N         -1.8977952649       -0.6408763416        0.4599273421
 C         -1.1196282106        0.1811751882       -0.5127713891
 C          0.0293967589        0.9684247465        0.1456038635
 C          1.4324621315        0.5453200161       -0.3132632734
 C          1.8293222278       -0.8604246206        0.1155231049
 H         -2.6550240617       -1.1641966362       -0.0043059238
 H         -2.3344300871       -0.0471647100        1.1797426197
 H         -1.3001985192       -1.3263604126        0.9434666769
 H         -1.8125707951        0.8632366088       -1.0253041692
 H         -0.7280912147       -0.4689792589       -1.3049469056
 H         -0.0410947850        0.8613380969        1.2342718730
 H         -0.1062941346        2.0433433754       -0.0371958265
 H          2.1737434136        1.2606287521        0.0695164777
 H          1.4948496198        0.6332864820       -1.4056118600
 H          1.8152344098       -0.9624007205        1.2024401772
 H          2.8371599085       -1.1183182824       -0.2199921048
 H          1.1521294454       -1.6127710259       -0.2917278147
