  17
        -17.16740232
 N         -1.8853684795       -0.5828775310       -0.3085886485
 C         -1.0643616522        0.2060466069        0.6558225876
 C          0.0534849803        1.0092331505       -0.0084227651
 C          1.1611110894        0.1622976271       -0.6485159195
 C          1.9947926081       -0.6312102372        0.3490968143
 H         -2.6596378664       -1.0715358168        0.1654166836
 H         -1.3272130609       -1.2986318535       -0.7949132969
 H         -2.3037020850        0.0269414716       -1.0257763944
 H         -0.6486397786       -0.4674328952        1.4141467578
 H         -1.7331667542        0.8826980513        1.2054396959
 H          0.5067324595        1.6889712205        0.7243303722
 H         -0.3933302210        1.6641068533       -0.7671688570
 H          1.8264520403        0.8160622168       -1.2298402484
 H          0.7212929076       -0.5160638817       -1.3893947246
 H          2.4600501176        0.0246339605        1.0878734292
 H          2.7986579681       -1.1851688991       -0.1425390766
 H          1.3913286375       -1.3587317251        0.8940192973
