  17
        -17.27790184
 N         -2.4584325628        0.3022755348        0.0006739127
 C         -1.2128569528       -0.5237887444       -0.0006550927
 C          0.0578507527        0.3196396648       -0.0009813611
 C          1.3417971793       -0.5164930839        0.0005786521
 C          2.6065767827        0.3326222641        0.0002047263
 H         -2.4924590203        0.9029472358       -0.8273878858
 H         -2.4914033487        0.9023455059        0.8292779344
 H         -3.2953465397       -0.2875239475        0.0011904607
 H         -1.2189622802       -1.1852636153       -0.8745775419
 H         -1.2178434172       -1.1860408877        0.8726853214
 H          0.0532207896        0.9853921249        0.8684594537
 H          0.0540511694        0.9836684591       -0.8717440062
 H          1.3403101457       -1.1837101215       -0.8698974509
 H          1.3395444675       -1.1817827168        0.8725315534
 H          3.5086949502       -0.2817335986        0.0009218606
 H          2.6481248322        0.9781810138        0.8783389199
 H          2.6485313831        0.9768009120       -0.8789979513
