21
 energy: -25.316592843065 gnorm: 0.000282533991 xtb: 6.5.1 (fef0646)
N            1.31751301519086        0.06564428198114       -0.46626957906468
C            2.77192058017087        0.05722803370837       -0.31082042655170
C            3.19515264529632        1.11063859189179        0.70785370449262
C            4.70491594010435        1.10928951048127        0.93189927316207
C            5.12660954411888        2.14495579255029        1.97143460207923
C            6.63466910767618        2.14804993513921        2.18805355242765
Cl           0.00268193312487       -0.48779237490567        2.09470735174222
H            1.01344333164316       -0.63602336755232       -1.13192049509486
H            0.99604416539353        0.97570304752799       -0.77962030200579
H            0.63185493722885       -0.22835617753371        0.90190449247515
H            3.28847690234344        0.23735363952311       -1.26487534744964
H            3.05717953945105       -0.93481244228738        0.04674074667939
H            2.68190274655784        0.91169060107873        1.64888592803207
H            2.88119114210520        2.09707411860079        0.35780696755457
H            5.21429042490664        1.31777550340051       -0.01250233301698
H            5.01873618748508        0.11765403788430        1.26461079229614
H            4.62378229673294        1.92881628542080        2.91601331227372
H            4.80503363787598        3.13647022732084        1.64491565132803
H            6.97285595156360        1.17192222790216        2.52846167524419
H            6.91228827254162        2.88714742066494        2.93559055275331
H            7.15362769849085        2.38537110720171        1.26174988064322
