  22
        -27.83280694
 N         -4.0876336455       -0.1749865637        0.7026031383
 C         -3.2723121094        0.1386446710       -0.5044550765
 C         -1.8541982693       -0.2816491092       -0.3650506170
 C         -0.8294560101        0.5946382705       -0.2262418744
 C          0.5545203062        0.2565176812       -0.0914299955
 C          1.5146963479        1.2852712921        0.0500581125
 C          2.8549763421        0.9938019704        0.1734320582
 C          3.2880420440       -0.3250534415        0.1603909350
 C          2.3675044416       -1.3551988535        0.0221603757
 C          1.0238348364       -1.0774219488       -0.1020553705
 H         -4.0991768699       -1.1888015200        0.8869995944
 H         -5.0659875961        0.1345115773        0.5979097524
 H         -3.7003117504        0.2865255927        1.5385665352
 H         -3.3220013641        1.2157109313       -0.7066212536
 H         -3.7186802689       -0.3445190684       -1.3834349830
 H         -1.6550623608       -1.3382900942       -0.3404603630
 H         -1.0702923126        1.6447597876       -0.2232741507
 H          1.1867271916        2.3115806323        0.0587620555
 H          3.5729708995        1.7927346728        0.2794000167
 H          4.3396453794       -0.5492318544        0.2560482091
 H          2.7092508918       -2.3790145618        0.0100319114
 H          0.3266778005       -1.8897136299       -0.2130768822
