23
 energy: -32.859012356734 gnorm: 0.000587394956 xtb: 6.5.1 (fef0646)
N            1.96750897699790       -0.91739330486256       -0.80588790708913
C            2.69140681757144        0.17026767272329       -0.10996732049411
C            3.13829138776286       -0.29213253705222        1.23910261492879
C            4.34107439694254       -0.03999543975543        1.74918123525246
C            4.83039859613400       -0.43271805921480        3.06313256781800
C            4.06766428741652       -1.16997941144470        3.97126807387284
C            4.58256078185610       -1.51772634723295        5.20523246641413
C            5.86724258755165       -1.13912575081725        5.56274593048820
C            6.63672428509491       -0.40844346171621        4.67248735934051
C            6.12370139185226       -0.06082710495072        3.43753429789636
Cl          -0.25379536651692       -1.99118033672025        1.00869814817146
H            1.56340940070616       -0.59618469145393       -1.68818710322573
H            1.18364016842409       -1.26748294906713       -0.19701712662076
H            2.58581938949875       -1.71477754958309       -0.97616003487299
H            2.00149557809148        1.00770584978688        0.01962342222877
H            3.54105839018986        0.49674703694329       -0.71066828498584
H            2.38495514320403       -0.83805850635065        1.78810954892057
H            5.05362703660932        0.52115543361457        1.15735652932512
H            3.06477001948884       -1.47528974880939        3.71373575633418
H            3.97756874798289       -2.08847473157458        5.89542798706784
H            6.26380845319074       -1.41243093009709        6.52918468611608
H            7.63863999373363       -0.11012439586644        4.94384192834262
H            6.73080953621652        0.50953926350080        2.74946522477046
