21
 energy: -32.429878790728 gnorm: 0.000582292950 xtb: 6.5.1 (fef0646)
N            1.06767725947405       -0.10611987122797       -0.31427387546250
C            2.52479131883927       -0.11126902232035       -0.45130443487099
C            3.13310916359169       -1.05878740512701        0.58060699691491
C            4.65042699180934       -0.92227433643553        0.68938491909099
C            5.07047797801474        0.34381092958073        1.43247744528821
C            6.57885592116935        0.44426409533794        1.55688078760052
O            7.01045311559037        1.48035581501156        2.30307550728588
O            7.35561715532778       -0.30437537236177        1.04305380788158
Cl           0.54726199057939        1.01827800338106        2.33669773454380
H            0.63224538714448        0.48674959773701       -1.01199641240588
H            0.76147915588672        0.47618348087829        1.08832967369037
H            0.69307054750908       -1.04531199860146       -0.40285013063509
H            2.86135219626759        0.91182729576948       -0.27278021118822
H            2.84741930027481       -0.40645264058454       -1.45935363351724
H            2.88544768478051       -2.08539912250986        0.30308633901953
H            2.67650924951778       -0.85440525889789        1.54976753578382
H            5.10294506244597       -0.92312200375402       -0.30347810345512
H            5.05198475935948       -1.78184072278289        1.22755827046265
H            4.62718739673394        0.35212356377069        2.43218553404938
H            4.72137957514143        1.23569663051367        0.90493141526069
H            6.28693879054161        2.00269834262229        2.67382083466260
