46
 energy: -73.471071817666 gnorm: 0.000640866427 xtb: 6.5.1 (fef0646)
N            1.39398344629600       -2.73921057712520        1.38770076686970
C            2.65723783643459       -2.07150280591842        1.68852611665724
C            3.59428533358798       -2.15607176265753        0.47686260800367
C            4.84921179243240       -1.39673360277106        0.72831922038573
C            5.19296396308663       -0.15800765648199        0.27767995574805
C            6.43764749791944        0.28816635961046        0.75475635113434
C            7.05485712499538       -0.61428504835021        1.58488544481834
C            8.31133955997547       -0.48664311232480        2.24725599068775
C            9.14314614139223        0.60668476691077        2.27902494390465
C           10.31653783848734        0.42144568123252        3.02690347492118
C           11.34803493946858        1.48524520093513        3.19258274629412
C           10.39414175431630       -0.84352281659709        3.58049348541025
C           11.40456805831311       -1.43231389271162        4.39078230468286
C           11.43064536169788       -2.72339221423079        4.86929470769016
C           12.55391564986139       -3.01650967725702        5.64723837266761
C           13.41707213273829       -1.95470265644068        5.78469520783762
C           14.64844868910424       -1.86228357621967        6.50628931306036
C           15.51034698965073       -2.85816033213461        6.91100165971656
C           15.34413179379957       -4.31576361275725        6.63419298636902
C           16.62527175218451       -2.34130996000215        7.61110917421552
C           16.61468711741992       -0.98968713465325        7.73064024159713
S           15.23517301561144       -0.29020776840517        6.98822999119123
S           12.81648901310846       -0.56444053421632        4.92499299588523
S            8.99093644449290       -1.79654370270946        3.16463264467421
S            6.07502449715308       -2.04099206155775        1.77391650381079
Cl           0.20175562301294       -1.48410527582100       -0.98411691112646
H            0.74159027868671       -2.65421220177906        2.15910549668210
H            1.54386440863947       -3.72380073034895        1.19215152348963
H            0.75316711371799       -2.06897086184208        0.12558751418576
H            3.16191185575115       -2.50157570532287        2.56551153669403
H            2.43678996993556       -1.02266124989868        1.90070570840282
H            3.08367274133831       -1.73989549521995       -0.39212031330518
H            3.82436702379026       -3.20549581702640        0.27634644190402
H            4.57091197853734        0.41612034977870       -0.38561917647753
H            6.86847904968564        1.23715990322603        0.49341596650489
H            8.91157514224412        1.52931540401645        1.77785875550206
H           11.05152190918444        2.37867271553438        2.64953148640115
H           12.31416440188896        1.14958000440852        2.81645870880630
H           11.47475660676790        1.73989933167950        4.24459216381168
H           10.64782987697274       -3.43095085721647        4.65856431121737
H           12.70489281496313       -3.96908758355089        6.11830761879520
H           14.95590921882489       -4.47679190438615        5.63023158053370
H           14.65307764047230       -4.76741695744318        7.34703037722224
H           16.30273802336655       -4.82061764236418        6.72768041039581
H           17.40907052024002       -2.96468424258131        8.00438444410255
H           17.33395605845215       -0.35558868701687        8.20932514801652
