21
 energy: -32.428099430070 gnorm: 0.000420959962 xtb: 6.5.1 (fef0646)
N            0.99858631841968       -0.23709300028038        0.17735802674393
C            2.45778228480701       -0.28141411881371        0.26914156845463
C            3.05743835091054       -0.35015759760295       -1.13384305095998
C            4.57904479357265       -0.20745157308982       -1.14185602406387
C            5.29507660804296       -1.42775921908255       -0.54766636903795
C            6.80061517662677       -1.25190860889194       -0.63032559893406
O            7.31575672297944       -1.33547924646397       -1.86977481107460
O            7.50211454099102       -1.04102820394649        0.31383130068069
Cl           0.18587653503376        2.00562810527096       -1.53832252387516
H            0.57658505642102       -0.12405181736728        1.09219795674165
H            0.63707130238793       -1.08588555516866       -0.24538680535759
H            0.55859905718645        0.96634480303806       -0.72610836821525
H            2.80091092921991       -1.13123496235761        0.87420566747060
H            2.78318652245372        0.63966432967937        0.75744491023126
H            2.62456867642935        0.46039186992331       -1.72039645720565
H            2.77322300410200       -1.29395541831536       -1.60544107570890
H            4.86209980565296        0.68145835360677       -0.57580801596354
H            4.90436715502472       -0.05650959417839       -2.17452260187846
H            5.00238835876935       -2.33291378897947       -1.08732074772951
H            5.03410623228562       -1.54359987814406        0.50331559335899
H            6.64274256868335       -1.50763487883585       -2.54129257367745
