  22
        -34.92689386
 N         -1.8494233050        0.3533200290        0.8174755220
 C         -1.6076589150        1.2105254972       -0.3306266181
 C         -0.2920542396        1.9805204080       -0.2353548130
 C          0.8978395542        1.0734877839       -0.1482228857
 C          1.4922953935        0.7948675097        1.0733162771
 C          2.5606719622       -0.0726275431        1.1543064328
 C          3.0548664768       -0.6837604851        0.0174479296
 F          4.1052376043       -1.5389276338        0.0981535991
 C          2.4627216092       -0.4149640081       -1.2019753057
 C          1.3938699011        0.4521074600       -1.2837867959
 Cl        -4.7547105937       -1.0306345747       -0.0661088000
 H         -1.0782536796       -0.2967220516        0.9200051825
 H         -3.5903706089       -0.4810142840        0.2950544584
 H         -1.8542216290        0.9111951838        1.6648290785
 H         -2.4552026034        1.8981833855       -0.4427099550
 H         -1.6131728295        0.5900571961       -1.2357216019
 H         -0.3121990518        2.6345136115        0.6423449852
 H         -0.1729888074        2.6472211077       -1.0964648403
 H          1.1095418534        1.2622321367        1.9646522133
 H          3.0268411805       -0.2899534900        2.0992566210
 H          2.8523015925       -0.8978309584       -2.0809174601
 H          0.9325673311        0.6517257529       -2.2361201745
