  15
        -17.23708965
 N         -2.2067737316        0.4474288256        0.4350952914
 C         -1.4196405515       -0.7673083307        0.0710630477
 C         -0.2726537893       -0.4613506998       -0.8808182488
 S          0.9622798812        0.6133295205       -0.1624020112
 C          2.0312617128       -0.5726151164        0.6093978854
 H         -2.9736169190        0.2249304071        1.0869967056
 H         -2.6271246239        0.8807627494       -0.3992673956
 H         -1.6112813249        1.1574497045        0.8853661627
 H         -2.0979850784       -1.5079778091       -0.3755588522
 H         -1.0316155604       -1.2319937443        0.9862224778
 H         -0.6564630034        0.0423185169       -1.7718992831
 H          0.2157877933       -1.3745891463       -1.2308567581
 H          1.4912457201       -1.1675773279        1.3426322650
 H          2.8401220432       -0.0508511536        1.1188055875
 H          2.4699680909       -1.2340477320       -0.1354948045
