18
 energy: -23.770999993627 gnorm: 0.000985206020 xtb: 6.5.1 (fef0646)
N            2.67640380022749        1.36322948305835       -0.88658688122126
C            2.52737797653100        0.17743965059596       -0.01499250729019
C            3.11336673870950       -1.06627599122794       -0.68769222568819
C            4.60512556612035       -1.04413946330732       -0.73453634100181
C            5.48672269665033       -1.82484155877752       -0.05845232389590
C            6.84036068274776       -1.51738168181587       -0.34036037337561
C            6.98147418214304       -0.50353637749752       -1.22746564772252
S            5.46385062951615        0.08775782331366       -1.75004337145587
H            2.33596350260287        2.20855098494696       -0.41641035873610
H            2.15400583493451        1.23292510402035       -1.76007058863903
H            3.66918608075933        1.49117808110358       -1.13248692727634
H            1.46970146484663        0.01102933914963        0.18536084273312
H            3.04129967675307        0.35659262084232        0.92891801120703
H            2.71767071665424       -1.15921144769807       -1.69980381777114
H            2.80727955666556       -1.94859563008678       -0.12687400086046
H            5.19563617209691       -2.60479829434103        0.62183021412896
H            7.67480928245581       -2.03354792056740        0.10097321682597
H            7.87898543958527       -0.06197472171161       -1.61373691996081
