21
 energy: -29.888038460281 gnorm: 0.000229590382 xtb: 6.5.1 (fef0646)
N            2.86205079425651       -0.18720757491513        3.77329787448084
C            2.49301161975874       -1.01733733633202        2.60142731547629
C            3.04208268002050       -0.38740362388701        1.32245903877480
C            4.54839408911834       -0.35897956625379        1.32195662101841
C            5.27084173450319       -1.53890579433113        1.17807688457327
C            6.65376988044458       -1.53110311852183        1.18908750256119
C            7.32347702258908       -0.32835130800274        1.34480140454280
Cl           9.07888688330893       -0.30912948296540        1.34304365401037
C            6.62690535046437        0.85834391233786        1.48897595669731
C            5.24198716602606        0.83459038252637        1.48170034265272
H            2.54672682166661       -0.62363221722078        4.64650048056449
H            2.44013546439660        0.74574175593722        3.69716491561801
H            3.88266628245663       -0.07530805181198        3.80585858027745
H            1.40812206784021       -1.09148465692441        2.54071486293377
H            2.90972090879082       -2.01565701243909        2.72890051697896
H            2.65487068268419        0.62383971699324        1.20452535149858
H            2.69677837242397       -0.97569777864650        0.47302039666871
H            4.75482103215728       -2.47622757499356        1.03939342821307
H            7.21155861937278       -2.44567599621429        1.07065309219845
H            7.16231429891556        1.78683688494298        1.60097363518503
H            4.70802822880506        1.76734844072175        1.57828814507541
