12
 energy: -15.823709279512 gnorm: 0.000305389677 xtb: 6.5.1 (fef0646)
N            1.08118032883416       -0.23340053172806       -0.24406007675169
C            2.53147855725829       -0.40015159417559       -0.14647492610041
C            2.92675323077292       -0.61994853803047        1.30585083840744
Cl           0.23298720975486        2.07231916027254        1.35568209369649
H            0.78973506230049       -0.07099383334940       -1.20148693593045
H            0.64121610787821        0.99005683650984        0.61220871724857
H            0.60121537096381       -1.05365901780597        0.11193986505408
H            2.99055012847104        0.51779740891306       -0.52023780371872
H            2.88999378482661       -1.23824455891716       -0.76159888758341
H            2.57872852374926        0.21086611797735        1.91219169391748
H            4.00681997465764       -0.69368401701384        1.39292881820100
H            2.48523172053252       -1.53805743265226        1.68752660355966
