  19
  -24.298855130000000       0.10019596177909240      !mtd2
 N         -0.0685330547       -1.9276896047       -0.0035291790
 C         -1.2202939998       -1.0218377593       -0.0519371479
 C         -1.2807778901       -0.1152485066        1.2056736192
 C         -1.5012949150        1.3263237182        0.7105989654
 C         -0.9832584843        1.3589648182       -0.7378666871
 C         -1.1458025521       -0.0744951556       -1.2813066552
 Cl         2.4088649854        0.2923098112        0.0618330316
 H         -0.1461706717       -2.5351649924        0.8044416607
 H          1.4176396243       -0.6099326270        0.0344275077
 H         -0.0756434183       -2.5311986760       -0.8176951149
 H         -2.1453664773       -1.6203201329       -0.1118070900
 H         -0.3331950628       -0.1952710337        1.7473750944
 H         -2.0636301633       -0.4366698811        1.9025386732
 H         -0.9874530588        2.0587355472        1.3454227928
 H         -2.5666588513        1.5824070712        0.7401303503
 H          0.0709588055        1.6583761990       -0.7559547927
 H         -1.5233042557        2.0919767298       -1.3503392382
 H         -0.3082567113       -0.3593069907       -1.9266428159
 H         -2.0512806948       -0.1586822190       -1.8926552711
  19
  -24.298842740000001        9.8890863399162809E-002 !mtd3
 N         -0.0662983635       -1.9278141845       -0.0576075676
 C         -1.2166176355       -1.0204943031       -0.1118487532
 C         -1.2806646425       -0.1096648685        1.1451010199
 C         -1.0638355579        1.3391003783        0.6653410329
 C         -1.4164221682        1.3491162816       -0.8323552500
 C         -1.1366264559       -0.0773501859       -1.3414568558
 Cl         2.4012011332        0.2896375516        0.2099385696
 H         -0.1617116381       -2.5549872040        0.7332955778
 H          1.4143897791       -0.6115342141        0.1037220536
 H         -0.0552069374       -2.5109568643       -0.8863410060
 H         -2.1423659722       -1.6177446459       -0.1733640143
 H         -0.5183181229       -0.4134109068        1.8698550610
 H         -2.2475884953       -0.2118822069        1.6507563643
 H         -0.0192918650        1.6383449706        0.8099745061
 H         -1.6714560897        2.0532882799        1.2345408796
 H         -0.8375151587        2.1000287908       -1.3839503780
 H         -2.4730880550        1.6055737094       -0.9735434899
 H         -0.1332695020       -0.1415504263       -1.7741381534
 H         -1.8341187086       -0.3779122017       -2.1317391491
  19
  -24.298836990000002        9.8290976931939625E-002 !mtd1
 N         -0.0696542605       -1.9297966218       -0.0076887120
 C         -1.2187804311       -1.0204112102       -0.0521077992
 C         -1.2716072360       -0.1124523248        1.2046867531
 C         -1.5018676971        1.3273089515        0.7091596092
 C         -0.9907058174        1.3607765971       -0.7417378838
 C         -1.1468733978       -0.0744398378       -1.2827722523
 Cl         2.4088011453        0.2904656950        0.0667779407
 H         -0.0808723187       -2.5328538145       -0.8221462108
 H          1.4181229811       -0.6119928679        0.0354135182
 H         -0.1468871472       -2.5373703805        0.8001997403
 H         -2.1460737640       -1.6158526875       -0.1073918800
 H         -0.3190843882       -0.1879552305        1.7382366166
 H         -2.0470249289       -0.4358585456        1.9088553532
 H         -0.9887452217        2.0630325415        1.3406797297
 H         -2.5683544557        1.5778918534        0.7434833471
 H          0.0615659082        1.6665821725       -0.7650279457
 H         -1.5378831602        2.0896661966       -1.3527814383
 H         -0.3073093028       -0.3568403945       -1.9264836849
 H         -2.0509749310       -0.1636642969       -1.8953840876
  19
  -24.298576890000000        7.4641432877764452E-002 !mtd1
 N          0.3992248112       -0.6159269713       -1.1831635799
 C         -0.7175091971       -0.4201821192       -0.2573508256
 C         -0.5746988802        0.9111751444        0.5282299264
 C         -1.7044105396        1.8382661060        0.0421030766
 C         -2.8032606676        0.9120083339       -0.5081123837
 C         -2.0832604746       -0.3613351890       -0.9941196705
 Cl         2.8915479994       -0.8532742720        1.0085962080
 H          0.2256366554       -1.4383021861       -1.7495529209
 H          1.8920229674       -0.7627120622        0.1194973157
 H          0.4229767318        0.1658805277       -1.8268943320
 H         -0.7130463028       -1.2624604849        0.4541066284
 H          0.4139602322        1.3486396927        0.3550420776
 H         -0.6531937239        0.7364839866        1.6072838905
 H         -1.3391792013        2.5049953297       -0.7476225219
 H         -2.0773225288        2.4846033496        0.8461872725
 H         -3.3762063468        1.3891895854       -1.3126505306
 H         -3.5233623361        0.6666722445        0.2815796854
 H         -1.9088607841       -0.3157085730       -2.0738542585
 H         -2.6797084686       -1.2635156535       -0.8161680218
  19
  -24.298545220000001        7.2181423670368713E-002 !mtd1
 N          0.3942481347       -0.6532929647       -1.1849634622
 C         -0.7141370981       -0.4166033376       -0.2588255848
 C         -0.5499526883        0.9334493235        0.4911336501
 C         -1.7073755558        1.8430311280        0.0359118339
 C         -2.8088861160        0.9011517625       -0.4815229870
 C         -2.0837303378       -0.3607528257       -0.9870987670
 Cl         2.8863923513       -0.8440715029        1.0135452430
 H          0.4240796180        0.1081165973       -1.8524020706
 H          1.8875331368       -0.7724293644        0.1221244644
 H          0.2074479725       -1.4900987654       -1.7253800183
 H         -0.7179324149       -1.2388691068        0.4756147296
 H          0.4263759338        1.3745505454        0.2654697022
 H         -0.5782685193        0.7814538541        1.5760840971
 H         -1.3749979984        2.5133949275       -0.7651799870
 H         -2.0660056923        2.4859139623        0.8491758288
 H         -3.4114209185        1.3693499547       -1.2695623549
 H         -3.5020888371        0.6453603388        0.3286043370
 H         -1.9157467756       -0.3000424344       -2.0670595967
 H         -2.6718586535       -1.2698050644       -0.8167083938
  19
  -24.298534820000000        7.1391405900210161E-002 !mtd2
 N          0.2868314172       -0.7123885986        1.1793310169
 C         -0.7390654425       -0.4070887969        0.1809613619
 C         -2.1610322930       -0.3532227238        0.8008434757
 C         -2.8122217079        0.9569238204        0.3177851306
 C         -1.6508138651        1.8916573545       -0.0637573228
 C         -0.4885609351        0.9727401634       -0.4866066940
 Cl         2.9308202120       -0.8794211063       -0.8355939767
 H          0.2796929253        0.0175879652        1.8815980616
 H          1.8703510330       -0.8174039242       -0.0177028610
 H          0.0401137473       -1.5675914739        1.6640630370
 H         -0.6995338702       -1.1937866921       -0.5904675185
 H         -2.0791809630       -0.3614773147        1.8922402950
 H         -2.7560650786       -1.2329650865        0.5293877485
 H         -3.4586730061        1.3991574519        1.0858786950
 H         -3.4501190599        0.7684762297       -0.5534478077
 H         -1.3598775377        2.5053811906        0.7965538264
 H         -1.9312884282        2.5899960821       -0.8623932945
 H          0.4813111360        1.3735161558       -0.1738580564
 H         -0.4472289900        0.8752369554       -1.5772171419
  19
  -24.298533219999999        7.1270634540773994E-002 !mtd1
 N          0.2856118718       -0.7159483187        1.1793167500
 C         -0.7396221784       -0.4091268195        0.1807476653
 C         -2.1617191385       -0.3536857201        0.8002394727
 C         -2.8105656588        0.9582478996        0.3188019614
 C         -1.6475497476        1.8912411192       -0.0620974709
 C         -0.4871651882        0.9706038244       -0.4862482882
 Cl         2.9293878665       -0.8763981721       -0.8364512660
 H          0.0382046416       -1.5714607773        1.6631354799
 H          1.8691051466       -0.8174011874       -0.0180600731
 H          0.2785291745        0.0133504083        1.8823018852
 H         -0.7007803420       -1.1956282722       -0.5909211766
 H         -2.0802370995       -0.3636123460        1.8916514679
 H         -2.7581691222       -1.2320274252        0.5273523335
 H         -3.4559203116        1.4008636337        1.0875977876
 H         -3.4490722243        0.7719648652       -0.5524525261
 H         -1.3551841741        2.5035533066        0.7987360484
 H         -1.9269506394        2.5909101344       -0.8599433556
 H          0.4835797504        1.3695737673       -0.1738938574
 H         -0.4467183111        0.8736225781       -1.5769398194
  19
  -24.298472690000001        6.6848699613592646E-002 !mtd2
 N          0.2155544223       -0.8252412765        1.1284328439
 C         -0.7763953983       -0.4663039087        0.1136150257
 C         -2.2101714569       -0.3905761971        0.7037670880
 C         -2.6171579273        1.0948037616        0.6903630582
 C         -1.7691679965        1.7548183803       -0.4111860169
 C         -0.4739909992        0.9246619134       -0.5075774701
 Cl         2.9608919147       -0.7728705714       -0.7509859484
 H          0.1751715832       -0.1394061030        1.8730182529
 H          1.8587359999       -0.7996872139        0.0119802668
 H         -0.0393948957       -1.7101098142        1.5518876697
 H         -0.7393446352       -1.2340502397       -0.6768651307
 H         -2.2314892383       -0.8082313513        1.7156936060
 H         -2.9076007120       -0.9878854692        0.1056042777
 H         -2.4063393048        1.5582968558        1.6611016950
 H         -3.6920549906        1.2227800398        0.5125473748
 H         -1.5622887086        2.8095593391       -0.1922983614
 H         -2.3073088512        1.7364327488       -1.3663873459
 H          0.3327785086        1.4001384961        0.0592258552
 H         -0.1159338277        0.8399973349       -1.5400349035
  19
  -24.298410160000000        6.2568560756832259E-002 !mtd1
 N          0.2219578790       -0.7849821421        1.1482001134
 C         -0.7635477690       -0.4578873784        0.1163691317
 C         -2.2045962816       -0.3983938151        0.6888075084
 C         -2.6160332360        1.0853232245        0.6924350367
 C         -1.7727631192        1.7584915205       -0.4049017922
 C         -0.4769147711        0.9305161784       -0.5189253502
 Cl         2.9532924860       -0.7912707608       -0.7535987049
 H         -0.0283636183       -1.6626149985        1.5888847777
 H          1.8572938799       -0.7940517073        0.0186228538
 H          0.1673833790       -0.0837360799        1.8772162893
 H         -0.7034145472       -1.2362863803       -0.6621901422
 H         -2.2378913978       -0.8322687322        1.6935867642
 H         -2.8915450486       -0.9881054352        0.0712737300
 H         -2.4034736957        1.5387774909        1.6675075349
 H         -3.6917754263        1.2118990452        0.5186788251
 H         -1.5656034663        2.8107271203       -0.1745766751
 H         -2.3159392142        1.7516360935       -1.3574297118
 H          0.3392829377        1.4114247179        0.0295452276
 H         -0.1379603293        0.8404888787       -1.5573439845
  19
  -24.298400990000001        6.1964353795530829E-002 !mtd2
 N          0.3479694378       -0.7411820948       -1.1597582940
 C         -0.7388770510       -0.4608322866       -0.2201051867
 C         -0.5314197263        0.9010311334        0.4965714489
 C         -1.8374809644        1.7025466806        0.3324468045
 C         -2.5679532547        1.0845894963       -0.8728321965
 C         -2.1174431627       -0.3872939897       -0.9305800900
 Cl         2.8796294025       -0.7810598398        1.0002831511
 H          0.1524840145       -1.6035153810       -1.6549829813
 H          1.8647561184       -0.7700635811        0.1242300207
 H          0.3586535287       -0.0134814350       -1.8644297040
 H         -0.7499832102       -1.2690550231        0.5297570210
 H          0.3061081735        1.4266205933        0.0273044668
 H         -0.2598596977        0.7690869331        1.5504013111
 H         -1.6442135143        2.7728836613        0.1896165295
 H         -2.4545145076        1.6170140914        1.2343790292
 H         -2.2882735493        1.6068334470       -1.7950300254
 H         -3.6578374843        1.1754730806       -0.7827250252
 H         -2.0379377917       -0.7474815210       -1.9616708296
 H         -2.8462427869       -1.0346622349       -0.4301883686
  19
  -24.298395010000000        6.1573481072039013E-002 !mtd5
 N          0.3507548732       -0.7156027056       -1.1658320338
 C         -0.7370111818       -0.4616330538       -0.2197136130
 C         -0.5412850799        0.8917968478        0.5166961199
 C         -1.8391635106        1.7025779889        0.3296219458
 C         -2.5596757028        1.0838863848       -0.8813469615
 C         -2.1166505436       -0.3902663754       -0.9271480652
 Cl         2.8786167110       -0.7874982847        0.9979954303
 H          0.3539493640        0.0249711052       -1.8570132898
 H          1.8654742308       -0.7634332348        0.1202242495
 H          0.1620098954       -1.5703437881       -1.6766072011
 H         -0.7379764716       -1.2821241985        0.5168102723
 H          0.3107008440        1.4177857131        0.0746439801
 H         -0.2971191642        0.7470981341        1.5755326724
 H         -1.6354724096        2.7704872795        0.1832535336
 H         -2.4689385536        1.6277229152        1.2236848321
 H         -2.2667351874        1.6001212813       -1.8027949826
 H         -3.6499797636        1.1811270400       -0.8037306964
 H         -2.0417491001       -0.7607330027       -1.9549543643
 H         -2.8468203638       -1.0290145793       -0.4177659034
  19
  -24.298390680000001        6.1291997756136543E-002 !mtd6
 N          0.2210972400       -0.7954296973        1.1477031589
 C         -0.7622079309       -0.4571085863        0.1174001875
 C         -2.2042069833       -0.3982671394        0.6880116176
 C         -2.6189701647        1.0846694552        0.6876175632
 C         -1.7696149478        1.7595035283       -0.4039481089
 C         -0.4708863167        0.9350300430       -0.5071791922
 Cl         2.9506457225       -0.7886882240       -0.7565107672
 H          0.1677976380       -0.1002210477        1.8825664533
 H          1.8555606748       -0.7969421937        0.0169213892
 H         -0.0321657528       -1.6760385293        1.5806795258
 H         -0.7034455991       -1.2293459114       -0.6673733391
 H         -2.2377011387       -0.8294754629        1.6939140654
 H         -2.8893820134       -0.9912679384        0.0716570679
 H         -2.4146222736        1.5393528894        1.6638686036
 H         -3.6937200723        1.2085680565        0.5060478665
 H         -1.5669971755        2.8124313993       -0.1727531031
 H         -2.3054340387        1.7504720898       -1.3606094321
 H          0.3376945595        1.4148301681        0.0534115802
 H         -0.1194943634        0.8510237566       -1.5419524017
  19
  -24.298304049999999        5.5923119028399339E-002 !mtd2
 N          0.3735725442       -0.3923291313       -1.1562835843
 C         -0.7568761979       -0.5028871338       -0.2335612693
 C         -0.7645083832        0.6571991442        0.7882685326
 C         -1.6838570011        1.7459020369        0.1981265706
 C         -2.5652215295        1.0634141952       -0.8769251771
 C         -2.1155395611       -0.4117486030       -0.9673782511
 Cl         2.9047935331       -0.8307868271        0.9587286196
 H          0.2923510181       -1.1009225697       -1.8764745327
 H          1.8905270466       -0.6581377778        0.0990696733
 H          0.3082442891        0.4982103591       -1.6343136836
 H         -0.6664596629       -1.4678835568        0.2927024676
 H          0.2521406363        1.0277880720        0.9559034203
 H         -1.1404008240        0.3125982290        1.7582943270
 H         -1.0859129567        2.5492796886       -0.2485664455
 H         -2.2923476401        2.2211746802        0.9770478449
 H         -2.4501345391        1.5635692596       -1.8459753919
 H         -3.6307378737        1.1371799620       -0.6262758859
 H         -2.0185943690       -0.7457803908       -2.0058352361
 H         -2.8502671272       -1.0722724301       -0.4933066629
  19
  -24.298055000000002        4.2967088878157290E-002 !mtd2
 N          0.2093443788       -1.0826930092        1.0513867325
 C         -0.7391294334       -0.3855514116        0.1802321145
 C         -2.1720052162       -0.3542441677        0.7578513201
 C         -2.8144608260        0.9686925989        0.2824664984
 C         -1.6742213743        1.8562554721       -0.2761369006
 C         -0.3536632259        1.0937422531       -0.0432478105
 Cl         2.9297139706       -0.7561152722       -0.8360951286
 H          0.2338692836       -0.6128857016        1.9484768827
 H          1.8379903684       -0.8946849909       -0.0701711065
 H         -0.1338004974       -2.0177061961        1.2380715638
 H         -0.7504389811       -0.8992959799       -0.7946531842
 H         -2.1174863295       -0.3905880558        1.8504737375
 H         -2.7518184835       -1.2315310780        0.4484897196
 H         -3.3432671112        1.4676466388        1.1034828733
 H         -3.5699180531        0.7775939602       -0.4890177659
 H         -1.6573961056        2.8423674072        0.2033439476
 H         -1.8216221432        2.0432577264       -1.3468206730
 H          0.1624265504        1.4672574186        0.8467594549
 H          0.3463021440        1.2086701891       -0.8787801592
