24
 energy: -28.995431062031 gnorm: 0.000201183924 xtb: 6.5.1 (fef0646)
N            1.00204642283953       -1.63069784547271       -1.74291574273145
C            2.48505256094720       -1.60875782891593       -1.73105805049724
C            2.99853957684395       -0.21975216270401       -1.36949700677398
C            4.53154396989862       -0.18803726679570       -1.38486339195040
C            5.08868081540895       -0.48662301489894       -2.75059349792755
C            4.90205641342967        0.41099211420989       -3.79634051263467
C            5.39915402535027        0.13977843987867       -5.05822412898773
C            6.09530108797455       -1.03482043762613       -5.29320888221216
C            6.29142969151866       -1.93321207810333       -4.25833413573485
C            5.78771320582480       -1.66127967091831       -2.99761562055085
H            0.65334829688301       -2.56383605592252       -1.98952637981975
H            0.64570946511882       -0.95431938718078       -2.42836515435482
H            0.63658923870106       -1.37502614838827       -0.81777747760968
H            2.85870270444890       -1.88802362753568       -2.71661884107266
H            2.84898115853054       -2.33629359071533       -1.00584757226224
H            2.65981345168818        0.06306214194143       -0.37256040522692
H            2.62756891034503        0.51487678379274       -2.08450247390603
H            4.92217007067096       -0.91094103977237       -0.66780969207464
H            4.86650297759677        0.80361627223092       -1.07519410184212
H            4.37698116643072        1.33861136170106       -3.62129644770626
H            5.25102888531299        0.84712175079004       -5.86117525298888
H            6.48936712863202       -1.24477574442461       -6.27680207669834
H            6.84126206439436       -2.84626938443434       -4.43442909056971
H            5.95235671121049       -2.36715358073551       -2.19657406386699
