15
 energy: -18.186096844202 gnorm: 0.000444609073 xtb: 6.5.1 (fef0646)
O            2.83378282017259       -1.24590887124412       -0.11348686160041
C            2.38843469046330        0.09004824544891        0.08330429719846
C            2.93234895980005        0.96859475030618       -1.04404911624634
C            4.45621714833725        1.01673534095928       -1.04391226495744
N            4.99363837061387       -0.31147351187793       -1.42422771402638
H            2.40627152470282       -1.83766455627401        0.51493707448304
H            2.74154753192690        0.46148318976762        1.05380234790675
H            1.29418228416649        0.13124595429999        0.07921222008031
H            2.53487142407870        1.97311746687070       -0.91379676133391
H            2.56886450936857        0.58313902638157       -1.99668504819012
H            4.81191880481230        1.27116285583041       -0.04525050290147
H            4.80875684136360        1.77356970792978       -1.74369713951971
H            4.46495802152765       -1.02046677130798       -0.87666303259476
H            5.99674680860024       -0.38689069188321       -1.23555019007733
H            4.82106026006568       -0.49819213520719       -2.41678730822067
