  21
        -29.41181137
 N         -4.0532843002        1.0342762017       -1.1089112964
 C         -4.1820440098       -0.3081249447       -0.4685490938
 C         -3.3667060076       -0.4326253605        0.8183201081
 C         -1.8887396031       -0.3058897152        0.5928715333
 C         -1.1744480858       -1.3464168138        0.0182983072
 C          0.1831833869       -1.2294455852       -0.2086334828
 C          0.8368276551       -0.0699780055        0.1361510991
 Br         2.6966362424        0.0900055292       -0.1737452391
 C          0.1460080531        0.9729822887        0.7063561115
 C         -1.2118712203        0.8558819757        0.9333144968
 H         -4.3853999131        1.7712510758       -0.4772928651
 H         -4.5986988759        1.0904783288       -1.9763162619
 H         -3.0729474359        1.2324799344       -1.3385133833
 H         -3.8625308607       -1.0759957390       -1.1822601347
 H         -5.2420334992       -0.5074401947       -0.2681740612
 H         -3.5672059682       -1.3923364736        1.3080678033
 H         -3.6907713736        0.3313225928        1.5319743288
 H         -1.6864387467       -2.2557876534       -0.2473472855
 H          0.7376231297       -2.0411722720       -0.6532046728
 H          0.6715140724        1.8764144454        0.9739597455
 H         -1.7507456501        1.6705532136        1.3863238401
