  21
        -29.41181137
 N         -4.0532843002        1.0342762017       -1.1089112964
 C         -4.1820440098       -0.3081249447       -0.4685490938
 C         -3.3667060076       -0.4326253605        0.8183201081
 C         -1.8887396031       -0.3058897152        0.5928715333
 C         -1.1744480858       -1.3464168138        0.0182983072
 C          0.1831833869       -1.2294455852       -0.2086334828
 C          0.8368276551       -0.0699780055        0.1361510991
 Br         2.6966362424        0.0900055292       -0.1737452391
 C          0.1460080531        0.9729822887        0.7063561115
 C         -1.2118712203        0.8558819757        0.9333144968
 H         -4.3853999131        1.7712510758       -0.4772928651
 H         -4.5986988759        1.0904783288       -1.9763162619
 H         -3.0729474359        1.2324799344       -1.3385133833
 H         -3.8625308607       -1.0759957390       -1.1822601347
 H         -5.2420334992       -0.5074401947       -0.2681740612
 H         -3.5672059682       -1.3923364736        1.3080678033
 H         -3.6907713736        0.3313225928        1.5319743288
 H         -1.6864387467       -2.2557876534       -0.2473472855
 H          0.7376231297       -2.0411722720       -0.6532046728
 H          0.6715140724        1.8764144454        0.9739597455
 H         -1.7507456501        1.6705532136        1.3863238401
  21
        -29.41114495
 N         -5.4558890396        0.4011447230       -0.7771956312
 C         -3.9631227979        0.4149359293       -0.8452138444
 C         -3.3044970435       -0.1345515786        0.4165965523
 C         -1.8053352903       -0.1226708507        0.3434231311
 C         -1.1142018130       -1.2072144229       -0.1758820170
 C          0.2636143362       -1.1837375695       -0.2726383595
 C          0.9598940797       -0.0735966944        0.1439439859
 Br         2.8472232145       -0.0421145821        0.0107772245
 C          0.2916516290        1.0138673873        0.6550207832
 C         -1.0863585661        0.9905784354        0.7519960273
 H         -5.8021498617       -0.5537935318       -0.6433259235
 H         -5.8722534349        0.7728054272       -1.6370080640
 H         -5.7867852729        0.9701099306        0.0080915812
 H         -3.6161305711        1.4389396628       -1.0251845392
 H         -3.6326987688       -0.1654091390       -1.7143491112
 H         -3.6509522672       -1.1560145851        0.6020167249
 H         -3.6301338114        0.4425088016        1.2876494968
 H         -1.6608585540       -2.0745968811       -0.5052425492
 H          0.8005136971       -2.0291366083       -0.6737582364
 H          0.8502731381        1.8791668190        0.9759831733
 H         -1.6112017280        1.8430244571        1.1489769263
  21
        -29.40940345
 N         -5.5606863949        0.5368860837       -0.4558132107
 C         -4.0957791656        0.7939848851       -0.3023889529
 C         -3.2604374184       -0.4813222289       -0.3937742455
 C         -1.7738031383       -0.3131971736       -0.2201291684
 C         -0.9663693578       -1.4416047973       -0.2482770886
 C          0.4030834232       -1.3411729677       -0.0983670872
 C          0.9820436341       -0.1077502995        0.0815864566
 Br         2.8580656979        0.0325103838        0.2862951518
 C          0.2026523682        1.0238206639        0.1124365439
 C         -1.1672906922        0.9223121116       -0.0382989439
 H         -6.0992861227        1.4071221995       -0.4012840859
 H         -5.8967013547       -0.0913109779        0.2807302410
 H         -5.7587492254        0.0979924864       -1.3603855845
 H         -3.9183539389        1.2847207134        0.6613164004
 H         -3.7749187041        1.5043887478       -1.0727434580
 H         -3.4439295860       -0.9595440409       -1.3611508596
 H         -3.6173715542       -1.1932538006        0.3571602368
 H         -1.4189036577       -2.4086267744       -0.3905850555
 H          1.0246682374       -2.2226682716       -0.1219287475
 H          0.6692841224        1.9861622807        0.2544117195
 H         -1.7639288472        1.8172020693       -0.0134738804
  21
        -29.40746361
 N         -4.7489290197       -0.1972238467       -1.4271048621
 C         -4.2080352841       -0.3620916490       -0.0424902407
 C         -3.2962298064        0.7996585269        0.3924747035
 C         -1.8227523343        0.5087098735        0.3036590738
 C         -1.2817283366       -0.1698911107       -0.7774955019
 C          0.0757476498       -0.4109001265       -0.8587240750
 C          0.9094935030        0.0326741882        0.1402280675
 Br         2.7696630313       -0.2972685632        0.0310461768
 C          0.3967973916        0.7162185631        1.2170135781
 C         -0.9618306947        0.9551764952        1.2967007405
 H         -3.9984300748       -0.0732409166       -2.1150362914
 H         -5.3542409590        0.6290355785       -1.4806515227
 H         -5.3041464538       -1.0119362662       -1.7109405831
 H         -3.6626746194       -1.3101210841        0.0347771553
 H         -5.0574645908       -0.4617580837        0.6457592806
 H         -3.5304410149        1.0882537679        1.4236130257
 H         -3.5176256088        1.6850699077       -0.2115747470
 H         -1.9286815486       -0.5173670735       -1.5621311677
 H          0.4897603654       -0.9440383830       -1.7003704174
 H          1.0618425361        1.0634751275        1.9923857439
 H         -1.3596223082        1.4976123430        2.1378204621
