  24
        -25.65608234
 N          2.6460711319       -0.0001589816        0.7434238176
 C          2.0452438754        0.0002111173       -0.6234660633
 C          0.5068526996        0.0000996385       -0.6375304079
 C         -0.1008238772        1.2645787475        0.0133504672
 C         -1.6367481593        1.2729423718       -0.1056188062
 C         -2.2526756836       -0.0001737881        0.5042376013
 C         -1.6365486861       -1.2730194512       -0.1059535980
 C         -0.1006853058       -1.2644443134        0.0133247562
 H          2.3690504516        0.8322260598        1.2827895713
 H          3.6765183200       -0.0010386213        0.6995544588
 H          2.3674643795       -0.8322487027        1.2830967339
 H          2.4159857406       -0.8731539439       -1.1720986598
 H          2.4158207804        0.8739934926       -1.1715062378
 H          0.1806265935        0.0000878685       -1.6903535051
 H          0.3345668524        2.1679100975       -0.4302867140
 H          0.1786561958        1.2916749412        1.0711878062
 H         -1.9205621923        1.3452922627       -1.1615780868
 H         -2.0551205842        2.1698752202        0.3693340261
 H         -3.3427283483       -0.0002522286        0.3743157862
 H         -2.0903147151       -0.0003037395        1.5881541498
 H         -1.9200872641       -1.3448999414       -1.1620202307
 H         -2.0549505445       -2.1702196903        0.3684493303
 H          0.3349996400       -2.1677613420       -0.4300495452
 H          0.1784608005       -1.2912880908        1.0712943199
