  24
        -25.65608234
 N          2.6460711319       -0.0001589816        0.7434238176
 C          2.0452438754        0.0002111173       -0.6234660633
 C          0.5068526996        0.0000996385       -0.6375304079
 C         -0.1008238772        1.2645787475        0.0133504672
 C         -1.6367481593        1.2729423718       -0.1056188062
 C         -2.2526756836       -0.0001737881        0.5042376013
 C         -1.6365486861       -1.2730194512       -0.1059535980
 C         -0.1006853058       -1.2644443134        0.0133247562
 H          2.3690504516        0.8322260598        1.2827895713
 H          3.6765183200       -0.0010386213        0.6995544588
 H          2.3674643795       -0.8322487027        1.2830967339
 H          2.4159857406       -0.8731539439       -1.1720986598
 H          2.4158207804        0.8739934926       -1.1715062378
 H          0.1806265935        0.0000878685       -1.6903535051
 H          0.3345668524        2.1679100975       -0.4302867140
 H          0.1786561958        1.2916749412        1.0711878062
 H         -1.9205621923        1.3452922627       -1.1615780868
 H         -2.0551205842        2.1698752202        0.3693340261
 H         -3.3427283483       -0.0002522286        0.3743157862
 H         -2.0903147151       -0.0003037395        1.5881541498
 H         -1.9200872641       -1.3448999414       -1.1620202307
 H         -2.0549505445       -2.1702196903        0.3684493303
 H          0.3349996400       -2.1677613420       -0.4300495452
 H          0.1784608005       -1.2912880908        1.0712943199
  24
        -25.65563039
 N          2.9481878517       -0.6562846986       -0.2730774828
 C          2.0112929119        0.3986914792        0.2182746565
 C          0.5546856694        0.1817749802       -0.2222385577
 C         -0.3255650198        1.4204016504        0.0803289161
 C         -1.7798159801        1.2169767697       -0.3825991427
 C         -2.3943583888       -0.0466599144        0.2449885686
 C         -1.5306010278       -1.2876641729       -0.0420712161
 C         -0.0752527038       -1.0788886429        0.4174645473
 H          3.9221739413       -0.4507316514       -0.0052047921
 H          2.9218920600       -0.7288358984       -1.3007298364
 H          2.7176445705       -1.5835863501        0.1116606057
 H          2.3592049201        1.3740641551       -0.1403961059
 H          2.0574612779        0.4514502277        1.3109274150
 H          0.5546588779        0.0335599616       -1.3126000612
 H          0.1082252983        2.3155338104       -0.3813675256
 H         -0.3074857200        1.6116110685        1.1584989220
 H         -1.8061067527        1.1310545542       -1.4747410503
 H         -2.3871488359        2.1003136835       -0.1458044884
 H         -3.4198541832       -0.1977446714       -0.1164591339
 H         -2.4857078214        0.0916034107        1.3284603952
 H         -1.5461929296       -1.5006867616       -1.1168660190
 H         -1.9620878466       -2.1764820356        0.4364064146
 H          0.5293895544       -1.9645611124        0.1922643731
 H         -0.0457008520       -0.9749162528        1.5072312604
  24
        -25.65459881
 N          2.7451567010        0.5548955706        0.4523581164
 C          1.5903965910       -0.3934944793        0.4367822008
 C          0.5991767981       -0.1345557554       -0.7092797275
 C         -0.1489329407        1.2183507917       -0.5694778916
 C         -1.2138936479        1.1954236801        0.5426016477
 C         -2.2109788638        0.0414240623        0.3427846667
 C         -1.4852661788       -1.3106313767        0.2381858264
 C         -0.4208204130       -1.2951784117       -0.8745701276
 H          3.4198585119        0.3170945882        1.1945442957
 H          2.4444417390        1.5263139811        0.6165155557
 H          3.2556008858        0.5341026017       -0.4425220305
 H          1.0679538668       -0.3502786115        1.3968224774
 H          1.9774583075       -1.4158301072        0.3584162448
 H          1.1991560024       -0.0861063891       -1.6335916496
 H         -0.6315838997        1.4672459354       -1.5215887814
 H          0.5681518726        2.0278205043       -0.3916966321
 H         -1.7447338936        2.1557701916        0.5840511675
 H         -0.7285314462        1.0952254313        1.5192107298
 H         -2.7914478474        0.2151246664       -0.5702440678
 H         -2.9480967898        0.0223431217        1.1566362200
 H         -2.2074322500       -2.1197248663        0.0659398359
 H         -1.0133101925       -1.5478467030        1.1977276894
 H         -0.9178319021       -1.2110861613       -1.8476942029
 H          0.1113957540       -2.2539926135       -0.9025296909
  24
        -25.65272695
 N          1.9509789986        0.0109810736        1.1355139861
 C          1.9464532474       -0.0068394899       -0.3554345862
 C          0.5596411091       -0.0021020240       -1.0287460245
 C         -0.2637229439        1.2946539883       -0.7748677163
 C         -1.1424838586        1.2608903094        0.4901289751
 C         -2.0181272917        0.0006387435        0.5378524877
 C         -1.1498602469       -1.2644800188        0.4836911345
 C         -0.2700869102       -1.2961383132       -0.7805961505
 H          1.4753684167       -0.8118401254        1.5303931698
 H          1.5014365826        0.8582246422        1.5100879042
 H          2.9147191749        0.0006013379        1.5033269489
 H          2.5068263067       -0.8870544914       -0.6919895941
 H          2.5221454144        0.8558171455       -0.7112324032
 H          0.7721807312       -0.0006456970       -2.1144350434
 H         -0.9036345391        1.4974642164       -1.6416402483
 H          0.4245056513        2.1471414082       -0.7236474079
 H         -1.7714785864        2.1599087598        0.5398786226
 H         -0.5186840246        1.3048666196        1.3876851431
 H         -2.7097996175        0.0048303960       -0.3121464895
 H         -2.6544044690        0.0002604157        1.4330562107
 H         -1.7845543154       -2.1598348228        0.5270610846
 H         -0.5274034328       -1.3184410014        1.3816252641
 H         -0.9101317207       -1.4924396231       -1.6487705039
 H          0.4141588038       -2.1520527532       -0.7324568402
  24
        -25.64758018
 N          2.2936678578       -0.3296862448        0.9387028488
 C          2.0416347288        0.0604207608       -0.4804747667
 C          0.5541536492        0.1671771962       -0.8604314436
 C         -0.1547059014        1.3532711511       -0.1455139478
 C         -1.6870284526        1.2170151026       -0.2101788564
 C         -2.1822484962       -0.0463487449        0.5400858261
 C         -1.1087003313       -1.1605827723        0.6092658177
 C         -0.2108847068       -1.1780514019       -0.6435533399
 H          1.8879151156       -1.2501477831        1.1592092235
 H          1.9039862357        0.3544969452        1.6028648257
 H          3.3043895318       -0.3930444095        1.1338260673
 H          2.5340963447       -0.6681523106       -1.1350684703
 H          2.5379330272        1.0174326728       -0.6781745258
 H          0.5165213344        0.3893917354       -1.9401450277
 H          0.1718199893        2.3097921075       -0.5712083256
 H          0.1581338960        1.3812911389        0.9019112557
 H         -1.9907208273        1.1596017543       -1.2615553233
 H         -2.1736797122        2.1185720296        0.1823743442
 H         -3.0869773839       -0.4353218171        0.0585879633
 H         -2.4945278437        0.2286100395        1.5548647620
 H         -1.5829895928       -2.1398044270        0.7528642869
 H         -0.4864118287       -1.0109770928        1.4975863432
 H         -0.8351932616       -1.3948935168       -1.5179292744
 H          0.5056941767       -2.0057111300       -0.5944796560
  24
        -25.64731211
 N          2.9202853822       -0.5250975491        0.2746187772
 C          1.8603720746        0.5228312034        0.1748998663
 C          0.5901792259        0.0366636320       -0.5392314126
 C         -0.4159345311        1.2083436895       -0.7792247631
 C         -1.5023167736        1.2794092037        0.3105932765
 C         -2.3686281089       -0.0046663356        0.3441676487
 C         -1.5837694316       -1.2634194172       -0.1030124061
 C         -0.0829995057       -1.1438435640        0.2219963523
 H          3.7712611115       -0.1613047927        0.7286250717
 H          3.1930388651       -0.8682680077       -0.6580189040
 H          2.6040925496       -1.3366264627        0.8249614171
 H          2.2703422920        1.3919152685       -0.3520016821
 H          1.6013897721        0.8788355693        1.1771868622
 H          0.9031418059       -0.3449412911       -1.5235432363
 H         -0.9006754993        1.0872214462       -1.7543868018
 H          0.1266750395        2.1585574758       -0.8423932214
 H         -2.1328174828        2.1662813104        0.1685846800
 H         -1.0211593956        1.4215493948        1.2843467843
 H         -3.2505777957        0.1291982202       -0.2930324411
 H         -2.7658522926       -0.1583026495        1.3547178639
 H         -1.7014438921       -1.4027848337       -1.1834731679
 H         -2.0075464119       -2.1668201188        0.3531246543
 H          0.4348203489       -2.0861554411        0.0080936210
 H          0.0382610886       -0.9821179633        1.2978448297
  24
        -25.64699669
 N          2.9095575657       -0.6336214449       -0.4082012355
 C          2.0066096663        0.3852977156        0.2062634439
 C          0.5320468584        0.2010185870       -0.1818809720
 C         -0.3483038574        1.3734021710        0.3186855256
 C         -1.7973609564        1.2913705215       -0.2257561255
 C         -2.2659983863       -0.1665422557       -0.4618792639
 C         -1.5802435159       -1.1448234300        0.5087343300
 C         -0.0416628378       -1.1600921544        0.3164796439
 H          2.6712531838       -1.5876060016       -0.1018579937
 H          3.8955042832       -0.4687112025       -0.1548173612
 H          2.8490739822       -0.6124066411       -1.4366915763
 H          2.3437555741        1.3848325110       -0.0906582651
 H          2.1032526067        0.3521287773        1.2963960665
 H          0.4769044530        0.2008927492       -1.2808467706
 H          0.1128609732        2.3313243648        0.0524497233
 H         -0.3615680607        1.3530972887        1.4135098913
 H         -1.8728837165        1.8618151515       -1.1589639436
 H         -2.4827188000        1.7890636040        0.4703485515
 H         -2.0327495035       -0.4650389875       -1.4898205473
 H         -3.3579207765       -0.2411865821       -0.3795960900
 H         -1.9945153376       -2.1546399326        0.3960528642
 H         -1.8181075184       -0.8484179533        1.5363408246
 H          0.2332898693       -1.9545356567       -0.3858181200
 H          0.4490746286       -1.4259813776        1.2589138616
  24
        -25.64691981
 N          2.9722343266       -0.5895887892       -0.1030225831
 C          1.8624465846        0.2238762798        0.4803820998
 C          0.6001030931        0.2557008656       -0.3963237143
 C         -0.3497167314        1.4198714744        0.0197784058
 C         -1.7995055095        1.1741879554       -0.4362046926
 C         -2.4034597365       -0.0848616205        0.2354378949
 C         -1.3288486174       -1.1426030093        0.5907132670
 C         -0.1470942581       -1.1157462887       -0.3979046755
 H          3.8112167971       -0.5688425355        0.4955567756
 H          3.2484591816       -0.2314122311       -1.0289565214
 H          2.7069595139       -1.5777912353       -0.2208936564
 H          2.2234005349        1.2470604590        0.6358638701
 H          1.6078400552       -0.1549265255        1.4754553343
 H          0.9337237811        0.4577018780       -1.4259630612
 H          0.0231249468        2.3771224195       -0.3639198822
 H         -0.3282847012        1.5169413387        1.1100577483
 H         -1.8110697366        1.0492512734       -1.5247505619
 H         -2.4220672828        2.0559120573       -0.2391993002
 H         -3.1578337046       -0.5320432969       -0.4223152914
 H         -2.9494121925        0.2073075676        1.1405754462
 H         -1.7740653427       -2.1448027867        0.6306908537
 H         -0.9518494055       -0.9550821154        1.6019574513
 H         -0.5233990578       -1.3320866683       -1.4039680199
 H          0.5547779821       -1.9252226571       -0.1710665390
  24
        -25.64685519
 N          2.6740334660       -0.0102263384        0.6658149760
 C          2.0113915760        0.0246492510       -0.6724714979
 C          0.4735918224        0.0271762647       -0.6196830643
 C         -0.0915928568        1.1973911919        0.2186839800
 C         -1.6289432149        1.3278317510        0.0662634643
 C         -2.3226080897       -0.0367712499       -0.1784639728
 C         -1.5406877150       -1.1957988771        0.4672889966
 C         -0.1144258607       -1.3299948705       -0.1267275986
 H          2.4367133882        0.8182490045        1.2297747263
 H          3.7012285461       -0.0264768094        0.5741802815
 H          2.4074940899       -0.8443645879        1.2080488236
 H          2.3541912892       -0.8321476331       -1.2635374263
 H          2.3607287860        0.9140902992       -1.2095567373
 H          0.1052695129        0.1754871149       -1.6477657318
 H          0.4104858991        2.1327864021       -0.0532608112
 H          0.1572638863        1.0249295146        1.2705540229
 H         -1.8605078286        2.0157460624       -0.7553828249
 H         -2.0510311298        1.7989025335        0.9617246110
 H         -2.4026118340       -0.2201751564       -1.2556063638
 H         -3.3568521470       -0.0165930180        0.1883875699
 H         -2.0927988114       -2.1384143330        0.3635419706
 H         -1.4730151599       -1.0185315862        1.5463074491
 H         -0.1247486067       -2.0469611411       -0.9554466532
 H          0.5595062566       -1.7670094484        0.6163145956
