16
 energy: -22.263241633352 gnorm: 0.000629756629 xtb: 6.5.1 (fef0646)
N            1.01013584403668        0.29409243845963       -0.08903440276473
C            2.47582914601173        0.17486966307175       -0.17444914130619
C            3.06267091637239        1.28254244437622       -1.02984694766263
S            2.71420136335798        2.92533362864585       -0.26561852482411
C            3.42306569385538        3.98156973639703       -1.55276353004814
Cl          -0.06062430471497       -2.05100719409994        1.52582174149920
H            0.61460118410745       -0.48376441223015        0.50046766694205
H            0.57911117449193        0.23024438008858       -1.01438117246555
H            0.75808911752343        1.18925077573483        0.34022078094305
H            2.72758479926378       -0.79676069777306       -0.59968950916117
H            2.88504095641364        0.22319824993692        0.83448157788731
H            2.62912621151106        1.29079479927709       -2.02902669289753
H            4.14344634300972        1.17463330079845       -1.09991992050481
H            3.30448050033159        5.00580246069642       -1.21498135378917
H            2.88503906328633        3.83073711928129       -2.48343868057944
H            4.47679199114147        3.74716330733914       -1.66954189126842
