  20
        -27.47377063
 N          1.8201981302        1.4355261685       -0.1468686644
 C          2.1393273512        0.2278633436        0.6700744953
 C          1.8582656562       -1.0960961041       -0.0474008252
 C          0.4606746649       -1.2382000828       -0.6746577673
 C         -0.7329748808       -1.1021007446        0.3022942570
 C         -1.5487418615        0.1342716055        0.0310454457
 O         -2.8683678014        0.0596748893        0.2639198264
 O         -1.0031167441        1.1330275933       -0.3671303823
 H          0.7946410967        1.4534558961       -0.3085909452
 H          2.2994833330        1.4236469109       -1.0579721864
 H          2.0749977677        2.3097295174        0.3354961192
 H          1.5645945319        0.2787445397        1.6028605443
 H          3.1930385102        0.2747714046        0.9760078168
 H          2.0220770043       -1.9283689407        0.6485051617
 H          2.6130554057       -1.2318766422       -0.8321543667
 H          0.3982735916       -2.2017288141       -1.1987860936
 H          0.3406431567       -0.4901123368       -1.4680507454
 H         -0.3885261524       -1.0832200381        1.3404079685
 H         -1.4066050291       -1.9652310250        0.2329125132
 H         -3.2825285916        0.9133914199        0.0558748899
