  24
        -28.88952833
 N         -1.6624991715        1.5369026980        0.7352466581
 C         -2.6477339725        0.6434764457        0.0621903441
 C         -2.2739863796       -0.8368376487        0.1459130422
 C         -1.1158258071       -1.2517237893       -0.7757834907
 C          0.2136788595       -0.6552264758       -0.4173448654
 C          0.7975733433        0.3392204755       -1.2131250122
 C          2.0154811547        0.9114660749       -0.8572931927
 C          2.6737602588        0.4904803733        0.2926881080
 C          2.1134100272       -0.5046163094        1.0858292734
 C          0.8919218285       -1.0720345126        0.7337100854
 H         -1.9037997582        2.5338800799        0.6229124560
 H         -0.7222531002        1.3908542500        0.3433561692
 H         -1.6121509473        1.3404990239        1.7461293361
 H         -2.7534141100        0.9381803366       -0.9886392732
 H         -3.6338141220        0.8129119750        0.5147974991
 H         -3.1561208570       -1.4478171317       -0.0878763011
 H         -2.0202952483       -1.0823812161        1.1828523700
 H         -1.3619936363       -0.9884026693       -1.8101893362
 H         -1.0105022998       -2.3434676191       -0.7775133409
 H          0.3010570986        0.6550842430       -2.1155726070
 H          2.4585227525        1.6702258199       -1.4834091510
 H          3.6245091806        0.9246035677        0.5613024216
 H          2.6307949829       -0.8436260544        1.9697325090
 H          0.4655661457       -1.8501535702        1.3446239468
  24
        -28.88341975
 N         -2.9717041667        1.4934933254       -0.3570391926
 C         -2.2816126886        0.7640275447        0.7455460774
 C         -2.0905804071       -0.7222133528        0.4535578516
 C         -1.0768581423       -1.0108095226       -0.6610345493
 C          0.3200844190       -0.5686069015       -0.3352743863
 C          0.8826455192        0.5584306273       -0.9468543804
 C          2.1790181190        0.9628021279       -0.6403746132
 C          2.9314216271        0.2487731420        0.2854577125
 C          2.3857993707       -0.8708344187        0.9035774593
 C          1.0899440641       -1.2758445794        0.5953416431
 H         -2.4324520899        1.4614217077       -1.2345290035
 H         -3.1196773612        2.4873865217       -0.1229795837
 H         -3.8977365471        1.0832020122       -0.5487269573
 H         -2.8626249249        0.8949282775        1.6678414135
 H         -1.3097045897        1.2318770213        0.9408323212
 H         -3.0625115548       -1.1605085396        0.1964318984
 H         -1.7712718668       -1.2403123573        1.3660230244
 H         -1.4004814691       -0.5328263083       -1.5912119730
 H         -1.0573730210       -2.0841551592       -0.8851939732
 H          0.3076802882        1.1095827503       -1.6715858908
 H          2.6035923949        1.8272043823       -1.1265142691
 H          3.9379287422        0.5595189281        0.5197234132
 H          2.9699875803       -1.4295962310        1.6180261099
 H          0.6746500720       -2.1505267893        1.0675452966
  24
        -28.88331098
 N         -2.9767542445        0.7458107030        1.3914150167
 C         -2.3243187965       -0.4860199833        0.8610386356
 C         -2.1076743300       -0.4458806425       -0.6497067860
 C         -1.0375039386        0.5579223609       -1.0974236562
 C          0.3420906242        0.2266647160       -0.6075073362
 C          1.0732742427       -0.8123797411       -1.1949524564
 C          2.3527923055       -1.1267560029       -0.7454109272
 C          2.9201523193       -0.4072074401        0.3002562919
 C          2.2055776705        0.6260553922        0.8961994511
 C          0.9254909774        0.9390752767        0.4471558116
 H         -3.1414707094        0.6830375222        2.4079681765
 H         -3.8915643274        0.9017940482        0.9425334847
 H         -2.4041499704        1.5859837128        1.2240767296
 H         -2.9435731930       -1.3518184786        1.1298518775
 H         -1.3657609439       -0.6403726230        1.3698476306
 H         -3.0625227946       -0.2159941722       -1.1378343208
 H         -1.8301047568       -1.4436728304       -1.0107821827
 H         -1.3083178735        1.5649458079       -0.7643535289
 H         -1.0111977851        0.6184951138       -2.1921118432
 H          0.6409112030       -1.3650765412       -2.0122572355
 H          2.9075908785       -1.9253772653       -1.2126810477
 H          3.9142543296       -0.6467578419        0.6450503509
 H          2.6470642336        1.1897123931        1.7031434206
 H          0.3796305656        1.7457458434        0.9065293470
  24
        -28.88321763
 N         -3.0277839279        1.4637786020       -0.4035887022
 C         -2.2938811901        0.8011640298        0.7130784475
 C         -2.0793597272       -0.6931035690        0.4846303727
 C         -1.0724158762       -1.0136503497       -0.6274866784
 C          0.3283878713       -0.5723915258       -0.3175547672
 C          0.8717412403        0.5767118889       -0.9046842719
 C          2.1718313895        0.9794594496       -0.6120010854
 C          2.9471219455        0.2418890270        0.2757723140
 C          2.4201030836       -0.8990024433        0.8706821922
 C          1.1202978777       -1.3019005337        0.5767675337
 H         -3.1901754562        2.4646206576       -0.2128562987
 H         -3.9500253382        1.0269998614       -0.5498917966
 H         -2.5121339721        1.4000631943       -1.2934322064
 H         -2.8544327382        0.9633578701        1.6430376328
 H         -1.3276900346        1.2970643847        0.8615499524
 H         -3.0465006663       -1.1579568160        0.2579112022
 H         -1.7411103340       -1.1657581252        1.4147957005
 H         -1.3968971309       -0.5566287366       -1.5677915654
 H         -1.0597642633       -2.0922084001       -0.8256282793
 H          0.2781069810        1.1469117099       -1.5989381551
 H          2.5815872637        1.8613399785       -1.0790706872
 H          3.9566116469        0.5511724654        0.4988936525
 H          3.0217708669       -1.4756207229        1.5558519687
 H          0.7185673321       -2.1918525748        1.0319375096
  24
        -28.88313672
 N         -3.0484491653        1.4519602456       -0.4213898987
 C         -2.2977025302        0.8157381763        0.6995201277
 C         -2.0751710381       -0.6810946761        0.4964882301
 C         -1.0707769337       -1.0154454485       -0.6139616194
 C          0.3314966028       -0.5743378025       -0.3105407373
 C          0.8669119639        0.5835100331       -0.8875780158
 C          2.1682514143        0.9862095225       -0.6003071682
 C          2.9525651005        0.2397709101        0.2720149667
 C          2.4333126055       -0.9096374718        0.8572665656
 C          1.1321674796       -1.3122755685        0.5689890332
 H         -3.2125064184        2.4559926667       -0.2498265008
 H         -3.9707271156        1.0086966274       -0.5464963046
 H         -2.5442854942        1.3712366151       -1.3164188430
 H         -2.8495705493        0.9915276714        1.6321999113
 H         -1.3336219022        1.3210545204        0.8284921983
 H         -3.0406292218       -1.1551272231        0.2819413664
 H         -1.7303165040       -1.1357023796        1.4332130871
 H         -1.3954305490       -0.5676801617       -1.5586343142
 H         -1.0608663395       -2.0960617819       -0.8007143871
 H          0.2659940077        1.1609919996       -1.5694273302
 H          2.5717387037        1.8750612269       -1.0595505654
 H          3.9630218478        0.5489986050        0.4908189834
 H          3.0417960270       -1.4930114641        1.5306036999
 H          0.7360279233       -2.2082712778        1.0171877253
  24
        -28.88305145
 N         -3.0591696045        1.5042752596       -0.2199363463
 C         -2.3575532367        0.3662322201       -0.8814577166
 C         -2.0868448173       -0.8005277580        0.0654882465
 C         -1.0110756579       -0.5094830650        1.1199727955
 C          0.3628886039       -0.3254370308        0.5442918656
 C          0.9057698357        0.9518987620        0.3603403635
 C          2.1811513385        1.1136099589       -0.1739504486
 C          2.9314271795        0.0005917787       -0.5366741182
 C          2.4039010724       -1.2744297521       -0.3655188045
 C          1.1286430711       -1.4355076215        0.1692236329
 H         -3.2581966125        2.2683149839       -0.8840460983
 H         -2.5031413100        1.9033823771        0.5503883114
 H         -3.9613004305        1.2014541100        0.1764325507
 H         -1.4154467468        0.7190166931       -1.3163304417
 H         -2.9659788441        0.0287615157       -1.7308796759
 H         -1.7866967019       -1.6846404911       -0.5102261947
 H         -3.0262996683       -1.0796996921        0.5576358415
 H         -0.9723153349       -1.3237592894        1.8536750954
 H         -1.2843968391        0.3792483022        1.6975241112
 H          0.3316124860        1.8166856259        0.6466499887
 H          2.5912925564        2.1032228689       -0.3012658970
 H          3.9221735593        0.1256052053       -0.9457160800
 H          2.9862380858       -2.1396461253       -0.6416715230
 H          0.7264629914       -2.4251577197        0.3087623998
  24
        -28.88212182
 N         -3.2543264138        1.5285827667        0.9062621832
 C         -2.2283857562        0.9226450018        0.0086500268
 C         -2.0818306255       -0.5810733815        0.2062825925
 C         -0.9971615507       -1.2081436995       -0.6800239157
 C          0.3810902694       -0.6857237584       -0.3976293450
 C          0.9679021260        0.2812457427       -1.2228590070
 C          2.2415840042        0.7720359608       -0.9494663680
 C          2.9449465485        0.3078856052        0.1564699699
 C          2.3727758422       -0.6476191697        0.9889325970
 C          1.0996116271       -1.1393934027        0.7143667586
 H         -4.1841241333        1.1168118667        0.7376580105
 H         -3.3364725504        2.5470330744        0.7642913433
 H         -3.0227418648        1.3706665818        1.8982152452
 H         -1.2623810498        1.4095544391        0.1826048680
 H         -2.4850689589        1.1379486137       -1.0355023517
 H         -3.0488172729       -1.0642930770        0.0213698201
 H         -1.8545656171       -0.7837038559        1.2587326347
 H         -1.2386357830       -1.0355443535       -1.7344777166
 H         -0.9913306011       -2.2980323296       -0.5608763792
 H          0.4312783584        0.6356714627       -2.0868821283
 H          2.6873320591        1.5076195141       -1.6006106056
 H          3.9343948001        0.6844181291        0.3653303139
 H          2.9188322444       -1.0122496494        1.8448887972
 H          0.6618232413       -1.8852599463        1.3566142500
  24
        -28.88203227
 N         -3.2796906920        1.5630022355        0.8300544295
 C         -2.2478567824        0.9263206463       -0.0389811796
 C         -2.0770241700       -0.5626296174        0.2360097989
 C         -0.9952528873       -1.2220811196       -0.6303228627
 C          0.3855655370       -0.6961927945       -0.3676234730
 C          0.9312356087        0.3214585318       -1.1592559400
 C          2.2080925363        0.8141091646       -0.9044627336
 C          2.9565778652        0.2997244800        0.1483644470
 C          2.4255600157       -0.7065559808        0.9476097626
 C          1.1482535042       -1.1983802601        0.6931335473
 H         -4.2023555064        1.1246522519        0.6919561171
 H         -3.3826873889        2.5698779481        0.6306158939
 H         -3.0389393259        1.4666669501        1.8276765507
 H         -1.2891737186        1.4368964047        0.1042200592
 H         -2.5127752055        1.0821426155       -1.0916485233
 H         -3.0396716185       -1.0671062189        0.0889224973
 H         -1.8339672746       -0.7072141126        1.2945373510
 H         -1.2370474159       -1.0846073279       -1.6898591909
 H         -0.9934326959       -2.3073710140       -0.4746187079
 H          0.3603971790        0.7134884037       -1.9841810179
 H          2.6213294386        1.5903110688       -1.5293470578
 H          3.9490457870        0.6767351285        0.3414952858
 H          3.0068584821       -1.1106745616        1.7616372071
 H          0.7418807423       -1.9822830198        1.3103189394
  24
        -28.88117494
 N         -3.7735952319        1.1954892714       -0.1125946139
 C         -3.3117929804       -0.2012242839        0.1339482292
 C         -1.8516259437       -0.4312622539       -0.2490405774
 C         -0.8605636928        0.3572846936        0.6098978145
 C          0.5740674799        0.0736546429        0.2731294191
 C          1.2606637851        0.8594081150       -0.6600305585
 C          2.5856481568        0.5828797465       -0.9861072586
 C          3.2418018289       -0.4872792035       -0.3882544258
 C          2.5704571420       -1.2819026716        0.5344705180
 C          1.2455613637       -1.0048807381        0.8604935041
 H         -3.2559408240        1.8764609093        0.4621808022
 H         -4.7748093302        1.3087397384        0.1092982097
 H         -3.6464811635        1.4595276979       -1.1009576934
 H         -3.9595714867       -0.8892481882       -0.4246690765
 H         -3.4615660701       -0.4495254052        1.1915565579
 H         -1.7054843772       -0.1700154463       -1.3031432149
 H         -1.6103673559       -1.4991794144       -0.1814982794
 H         -1.0306078742        0.1378690142        1.6696109018
 H         -1.0468583489        1.4303172386        0.5027994606
 H          0.7552766171        1.6887887547       -1.1256319053
 H          3.1052214185        1.2004259646       -1.7019974580
 H          4.2694480705       -0.7003477297       -0.6393947254
 H          3.0776912092       -2.1128799975        0.9992291387
 H          0.7282545674       -1.6221669884        1.5759394672
  24
        -28.88045992
 N         -4.0450651503        1.2346700773        0.7850006829
 C         -3.2492010421        0.1889398389        0.0783072252
 C         -1.7463689075        0.3830724987        0.2445084638
 C         -0.9088669475       -0.6786524897       -0.4741447199
 C          0.5683002647       -0.4719025153       -0.3130715538
 C          1.2825447350        0.3199046338       -1.2200019181
 C          2.6496404870        0.5286875575       -1.0600622154
 C          3.3213432459       -0.0461247974        0.0130344274
 C          2.6236292962       -0.8275927562        0.9274507505
 C          1.2564576676       -1.0362750457        0.7672295178
 H         -5.0593046627        1.0943296959        0.6593321520
 H         -3.8170116193        2.1767466502        0.4341389302
 H         -3.8542047495        1.2267753209        1.7979669003
 H         -3.5092125279        0.1929710622       -0.9869969972
 H         -3.5400602531       -0.8013676445        0.4489929822
 H         -1.4943486643        0.3879760841        1.3106958520
 H         -1.4647908486        1.3776855441       -0.1182505239
 H         -1.1574636664       -0.6892609071       -1.5410020827
 H         -1.1763687347       -1.6754326963       -0.1070005249
 H          0.7651362356        0.7656693834       -2.0529500661
 H          3.1895746020        1.1345917572       -1.7708300092
 H          4.3816756541        0.1126674232        0.1351171638
 H          3.1434884066       -1.2748586047        1.7601544293
 H          0.7190900352       -1.6436305741        1.4763461064
