  13
  -20.283488660000000       0.17884794082604955      !md1
 N          0.1634719005       -1.2413660738        0.8838761840
 C          1.0000439119       -1.4702712759       -0.3236875279
 C          1.3636563137       -0.1586996917       -1.0129614085
 C          2.0571390963        0.7367274279       -0.1533919885
 N          2.6031489435        1.4421800124        0.5880189296
 Cl        -2.7236671946        0.4408009927       -0.0548784319
 H         -0.0843564776       -2.1209502378        1.3643306570
 H         -0.7167069009       -0.7533148560        0.6329738161
 H          0.6612404365       -0.6404694943        1.5581993882
 H          0.4751222819       -2.1396230573       -1.0170784643
 H          1.9167325438       -1.9968917555       -0.0317208947
 H          0.4513746304        0.3343178248       -1.3685318980
 H          1.9719023241       -0.3462503207       -1.9060133550
  13
  -20.283470810000001       0.17550142706653915      !gc
 N          0.1256229160       -1.1061143751       -1.0505696693
 C          1.0078853510       -1.4968966198        0.0805109640
 C          1.4031132797       -0.2916031420        0.9282081755
 C          2.0660461056        0.7143673046        0.1731591822
 N          2.5856586570        1.5159848242       -0.4847677964
 Cl        -2.7210854345        0.4201386068        0.2194836536
 H          0.5985102365       -0.4173178431       -1.6547728702
 H         -0.7427721101       -0.6593460401       -0.7010550918
 H         -0.1434803549       -1.9120865500       -1.6373906804
 H          1.9107582395       -1.9771343318       -0.3166851324
 H          0.5081016673       -2.2556733831        0.6954569229
 H          2.0451523690       -0.5989205864        1.7627721474
 H          0.5074783155        0.1464024328        1.3834901500
  13
  -20.283324929999999       0.15039688664890255      !gc
 N          0.1617964215       -1.2330268216        0.8857905599
 C          0.9971175379       -1.4613056437       -0.3227267219
 C          1.3635789227       -0.1492823203       -1.0095518647
 C          2.0680480400        0.7391203253       -0.1516174699
 N          2.6243045787        1.4398310621        0.5867098230
 Cl        -2.7336176585        0.4294912755       -0.0577407695
 H         -0.7160090701       -0.7485976800        0.6365249063
 H          0.6613885211       -0.6290615400        1.5619193248
 H         -0.0844770660       -2.1130011593        1.3668788249
 H          0.4702126062       -2.1280401473       -1.0171441905
 H          1.9127580817       -1.9906288316       -0.0323942774
 H          0.4517291958        0.3500939770       -1.3572546377
 H          1.9647963523       -0.3369560462       -1.9073265335
  13
  -20.283300900000000       0.14662074527044522      !md3
 N          0.1264151570       -1.1151244127       -1.0509358832
 C          1.0067216576       -1.5009893672        0.0833460189
 C          1.3966245877       -0.2925836808        0.9290801284
 C          2.0569991486        0.7142102896        0.1728853322
 N          2.5747281332        1.5164912406       -0.4857575239
 Cl        -2.7112478857        0.4262970763        0.2187384508
 H         -0.1430290768       -1.9236250127       -1.6337469764
 H          0.6024753045       -0.4271283502       -1.6605367843
 H         -0.7384714270       -0.6673791517       -0.7056189491
 H          1.9117579136       -1.9798992551       -0.3104533758
 H          0.5074156932       -2.2595215341        0.6989775186
 H          2.0385916915       -0.5959533040        1.7651381157
 H          0.4988658557        0.1433082701        1.3821994426
  13
  -20.283297019999999       0.14601998454743148      !md3
 N          0.1635647848       -1.2459476646        0.8852772288
 C          0.9987340333       -1.4723327043       -0.3237175349
 C          1.3587597922       -0.1595201057       -1.0124987401
 C          2.0516236101        0.7367975814       -0.1533668570
 N          2.5969977662        1.4429406662        0.5878562373
 Cl        -2.7170212391        0.4439766537       -0.0557431751
 H          0.6620400752       -0.6466612211        1.5601902208
 H         -0.0852027478       -2.1298599369        1.3661485238
 H         -0.7132649583       -0.7589139478        0.6368603371
 H          0.4740225777       -2.1421286978       -1.0168384276
 H          1.9167991617       -1.9974961860       -0.0334957578
 H          0.4449649424        0.3319311616       -1.3663594997
 H          1.9660571472       -0.3451515862       -1.9065934342
  13
  -20.283234620000002       0.13668952794635059      !gc
 N          0.1256834938       -1.1055274557       -1.0508575291
 C          1.0073275914       -1.4965475655        0.0806161562
 C          1.4021328561       -0.2914438772        0.9287665026
 C          2.0653737832        0.7145243967        0.1739674192
 N          2.5845897690        1.5153157329       -0.4853740987
 Cl        -2.7199222495        0.4199999624        0.2194436240
 H         -0.7389989488       -0.6599299478       -0.7028675820
 H         -0.1451148997       -1.9144335316       -1.6397152790
 H          0.5993097112       -0.4171114293       -1.6552838567
 H          1.9103779312       -1.9766329772       -0.3163470074
 H          0.5073347655       -2.2555189406        0.6951499716
 H          2.0439500090       -0.5988995468        1.7634463689
 H          0.5063293034        0.1465392312        1.3837282625
  13
  -20.280766730000000        1.0036251292954487E-002 !gc
 N         -0.1770211810       -1.7840692990        0.3247399313
 C          1.0347641187       -1.0846905777       -0.1799099049
 C          1.2531582358        0.2605852478        0.5015316235
 C          2.4051536109        0.9555319213        0.0384346320
 N          3.3481137702        1.5080189290       -0.3507414456
 Cl        -2.9314276959        0.2779807825       -0.1687985588
 H         -0.3305952724       -2.6879102356       -0.1498277803
 H         -1.0231826338       -1.2018384399        0.1789382053
 H         -0.1027040262       -1.9691954443        1.3369555876
 H          0.9542517285       -0.9380666763       -1.2641747428
 H          1.9177870646       -1.7188200452       -0.0351351743
 H          1.3326181692        0.1146958459        1.5850135513
 H          0.3700193470        0.8931850487        0.3563401765
  13
  -20.280733540000000        9.6898813433214902E-003 !mtd1
 N         -0.1714995565       -1.8114817134        0.0960629713
 C          1.0172362004       -1.0052765774        0.4823722293
 C          1.2811717961        0.1392103082       -0.4883916305
 C          2.4098842616        0.9334039976       -0.1422714446
 N          3.3330106375        1.5701595049        0.1548874538
 Cl        -2.9344245024        0.2931332745       -0.0479996021
 H         -0.0465559660       -2.2305291593       -0.8381324638
 H         -1.0203204924       -1.2163750684        0.0561216877
 H         -0.3552720766       -2.5782164752        0.7627830909
 H          1.9020738029       -1.6511619927        0.5404130091
 H          0.8805639741       -0.6042273099        1.4940013088
 H          0.3950585845        0.7817875345       -0.5479418197
 H          1.4198825852       -0.2610946334       -1.4991290031
  13
  -20.280679899999999        9.1551870489230067E-003 !mtd1
 N         -0.1776117728       -1.7840692731        0.3189271399
 C          1.0336214335       -1.0834131274       -0.1853539635
 C          1.2610658710        0.2533903041        0.5097077314
 C          2.4067210391        0.9542217669        0.0397455513
 N          3.3441889676        1.5117618185       -0.3555256663
 Cl        -2.9329386822        0.2794295217       -0.1657783049
 H         -0.3348724141       -2.6840233249       -0.1617729333
 H         -1.0233307338       -1.1994791427        0.1801142044
 H         -0.0998631446       -1.9768814273        1.3294472115
 H          0.9464185899       -0.9242345417       -1.2673242060
 H          1.9152100382       -1.7223308731       -0.0535295553
 H          1.3550068839        0.0944174434        1.5901905936
 H          0.3762285683        0.8877382164        0.3838330160
  13
  -20.280546009999998        7.9457635666233019E-003 !mtd5
 N         -0.1718536241       -1.8124304047        0.0964942650
 C          1.0169804531       -1.0061579633        0.4823210451
 C          1.2787231782        0.1400804440       -0.4869862791
 C          2.4082992975        0.9335547862       -0.1420912132
 N          3.3317826003        1.5700764301        0.1543333110
 Cl        -2.9322476171        0.2936630685       -0.0485166503
 H         -0.3553969691       -2.5787735907        0.7633971163
 H         -0.0468530085       -2.2334688917       -0.8413196699
 H         -1.0173718084       -1.2194041891        0.0570500552
 H          1.9022255797       -1.6517076673        0.5377576371
 H          0.8818712107       -0.6068916140        1.4948731176
 H          0.3925511661        0.7828824017       -0.5432573308
 H          1.4149337467       -0.2584136137       -1.4987758692
  13
  -20.280527400000000        7.7908182738089683E-003 !mtd7
 N         -0.1777039171       -1.7853746310        0.3225027376
 C          1.0350165609       -1.0860819645       -0.1800809090
 C          1.2531290826        0.2585053730        0.5028569370
 C          2.4035351198        0.9554011112        0.0386995440
 N          3.3451450778        1.5094246811       -0.3516024765
 Cl        -2.9295550137        0.2796690266       -0.1678994872
 H         -0.1041521243       -1.9726810765        1.3341580456
 H         -0.3329048722       -2.6915715288       -0.1559731474
 H         -1.0200520602       -1.2042447406        0.1780071282
 H          0.9556285622       -0.9384416350       -1.2642818045
 H          1.9174436951       -1.7209275047       -0.0348945488
 H          1.3344174056        0.1114633659        1.5860408022
 H          0.3693119721        0.8905988305        0.3595715019
  13
  -20.280505269999999        7.6104936935795682E-003 !gc
 N         -0.1720925509       -1.8130692643        0.0962681497
 C          1.0163512213       -1.0062336282        0.4820928579
 C          1.2800166030        0.1377262938       -0.4893695231
 C          2.4075246789        0.9333824465       -0.1427041955
 N          3.3295352030        1.5712606602        0.1555092977
 Cl        -2.9312634482        0.2946138388       -0.0477751077
 H         -1.0173695163       -1.2201770187        0.0553465052
 H         -0.3571159839       -2.5815664468        0.7666384254
 H         -0.0465494681       -2.2337921571       -0.8373322447
 H          1.9013439981       -1.6518421542        0.5406345415
 H          0.8795141489       -0.6045976768        1.4934637480
 H          0.3933545692        0.7794155848       -0.5502259437
 H          1.4200320716       -0.2632302125       -1.4996592340
  13
  -20.280467229999999        7.3102268953835715E-003 !gc
 N         -0.1777057660       -1.7820950803        0.3219063625
 C          1.0337585399       -1.0824060562       -0.1832249935
 C          1.2586779870        0.2578109154        0.5060299442
 C          2.4079100547        0.9548946448        0.0391986035
 N          3.3482434977        1.5093854882       -0.3535508432
 Cl        -2.9340181983        0.2770357646       -0.1672445852
 H         -1.0201016999       -1.2005536357        0.1809289344
 H         -0.1012029705       -1.9720223147        1.3370251955
 H         -0.3345213824       -2.6835693554       -0.1565533202
 H          0.9490030856       -0.9283956430       -1.2661438620
 H          1.9156048420       -1.7198887037       -0.0462798046
 H          1.3463699870        0.1043218300        1.5878307763
 H          0.3752316542        0.8924038225        0.3718559716
  13
  -20.278655229999998        1.0744675747114097E-003 !md3
 N          0.0632407501       -0.3594321841        0.5239713874
 C          0.7267674775       -0.5460571875       -0.7934143856
 C          2.2454444612       -0.5963245809       -0.6582528197
 C          2.7793662469        0.5764140435       -0.0572089444
 N          3.1688796835        1.5423822617        0.4533736963
 Cl        -3.3890350960       -0.1529443228        0.1774468581
 H          0.2829116050       -1.1387796309        1.1626654834
 H         -0.9697683353       -0.2974961803        0.4378626552
 H          0.3953428800        0.5066593590        0.9746991327
 H          0.4464921001        0.2814024425       -1.4570711207
 H          0.3493165027       -1.4578823844       -1.2727604244
 H          2.7166102662       -0.7463794864       -1.6373817160
 H          2.5315648634       -1.4624893263       -0.0507478224
  13
  -20.278597420000001        1.0107079397546591E-003 !gc
 N         -0.0846694503        0.2676296308       -0.5747875795
 C          0.8044492015       -0.8733071118       -0.2307110756
 C          2.2491278567       -0.6066410701       -0.6417330288
 C          2.7813314744        0.5652884475       -0.0375840384
 N          3.1675535319        1.5380417480        0.4624984544
 Cl        -3.3504438894       -0.3147544216        0.4652607758
 H          0.2479438732        1.1320889323       -0.1218507221
 H         -1.0650609529        0.1067295609       -0.2726481586
 H         -0.0897508752        0.4392750512       -1.5918906676
 H          0.4297007439       -1.7907937779       -0.7020186110
 H          0.7593550429       -1.0501498637        0.8508106723
 H          2.3066403318       -0.4959908489       -1.7308085733
 H          2.8870805172       -1.4630270202       -0.3920485222
  13
  -20.278505899999999        9.1741533969026169E-004 !gc
 N          0.0601760188       -0.3342807963        0.5184020179
 C          0.7257118841       -0.5348004958       -0.7958997218
 C          2.2436472833       -0.5949238796       -0.6563162326
 C          2.7847367136        0.5743468857       -0.0550317074
 N          3.1816161222        1.5372974187        0.4555248157
 Cl        -3.3932679292       -0.1672050074        0.1786601133
 H          0.3904549729        0.5365459545        0.9607452563
 H          0.2807458734       -1.1096771772        1.1680357784
 H         -0.9689972325       -0.2759332029        0.4309366773
 H          0.4527449349        0.2898917409       -1.4660099058
 H          0.3432673664       -1.4473643718       -1.2699029288
 H          2.7164926645       -0.7494653877       -1.6339505260
 H          2.5222417990       -1.4624068896       -0.0471678868
  13
  -20.278446249999998        8.6129664503954261E-004 !gc
 N         -0.0860910426        0.2800124071       -0.5587454149
 C          0.8028575178       -0.8670288004       -0.2351586459
 C          2.2452210647       -0.5982038269       -0.6528592688
 C          2.7841241302        0.5653961730       -0.0386486626
 N          3.1766030454        1.5311561185        0.4700264580
 Cl        -3.3520607251       -0.3240607225        0.4615157934
 H         -1.0618757179        0.1156589798       -0.2577488883
 H         -0.0939702578        0.4682453641       -1.5768180675
 H          0.2486021612        1.1372742576       -0.0933236416
 H          0.4229581073       -1.7776260159       -0.7156198661
 H          0.7647587249       -1.0576267453        0.8442991824
 H          2.2954148261       -0.4747174049       -1.7409219215
 H          2.8831335206       -1.4587664676       -0.4178659546
  13
  -20.278446060000000        8.6112349271204726E-004 !md3
 N          0.0615646459       -0.3536526533        0.5217114629
 C          0.7269074755       -0.5429751898       -0.7943862659
 C          2.2452062400       -0.5964561108       -0.6563793183
 C          2.7809477860        0.5760084796       -0.0564212624
 N          3.1726381775        1.5417079172        0.4529823154
 Cl        -3.3903340456       -0.1565357892        0.1779514770
 H         -0.9672054350       -0.2918864867        0.4346193906
 H          0.3948679884        0.5161147593        0.9733100224
 H          0.2799785456       -1.1321778094        1.1621578306
 H          0.4495900846        0.2843943462       -1.4593906518
 H          0.3484343380       -1.4545134340       -1.2734885336
 H          2.7177588585       -0.7497218694       -1.6343307956
 H          2.5281209513       -1.4621180528       -0.0466473238
  13
  -20.278419939999999        8.3764792442385470E-004 !gc
 N         -0.0850443272        0.2684366878       -0.5734141434
 C          0.8038864025       -0.8732981723       -0.2314674777
 C          2.2484995860       -0.6062689034       -0.6425137377
 C          2.7807276768        0.5652688474       -0.0376283364
 N          3.1671745518        1.5376421289        0.4630124757
 Cl        -3.3495808416       -0.3152491217        0.4650109194
 H         -0.0898068631        0.4422164418       -1.5899412226
 H          0.2486839005        1.1353880670       -0.1167573248
 H         -1.0617800446        0.1074413053       -0.2729503275
 H          0.4288198369       -1.7899545017       -0.7041518146
 H          0.7591153788       -1.0518778817        0.8497814178
 H          2.3058586690       -0.4948516258       -1.7315196936
 H          2.8865254597       -1.4627987842       -0.3935112969
  13
  -20.278347860000000        7.7613245116353396E-004 !gc
 N          0.0641518506       -0.3735423607        0.5290383075
 C          0.7253534941       -0.5485333479       -0.7911264154
 C          2.2444371917       -0.5950574831       -0.6598481370
 C          2.7767735874        0.5782484078       -0.0584820608
 N          3.1651230298        1.5444670326        0.4525088812
 Cl        -3.3863357877       -0.1472134519        0.1754614177
 H         -0.9647332636       -0.3105446740        0.4453159892
 H          0.3986091288        0.4916056706        0.9886479558
 H          0.2844562924       -1.1588148559        1.1606380908
 H          0.4412036807        0.2828602221       -1.4481825297
 H          0.3495465648       -1.4580027999       -1.2762203453
 H          2.7134632871       -0.7427059796       -1.6403578343
 H          2.5342701912       -1.4612824400       -0.0542160329
  13
  -20.274783899999999        1.7867065516622459E-005 !gc
 N         -0.2012298728       -1.1590825273       -0.1129938759
 C          0.6985649686        0.0225675005       -0.0318301882
 C          2.1701706256       -0.3592995755       -0.1327176805
 C          3.0549328067        0.7527311489       -0.0602103679
 N          3.7618492692        1.6706020859        0.0007079560
 Cl        -3.5403455490       -0.1994281273        0.1412081570
 H         -0.0753839367       -1.6590737813       -1.0063631990
 H         -1.2015220726       -0.8901533457       -0.0403020434
 H         -0.0010027654       -1.8290941642        0.6455216826
 H          0.5216345051        0.5599802642        0.9080996698
 H          0.4481468679        0.7348719457       -0.8273284718
 H          2.3464059119       -0.8977982652       -1.0710660074
 H          2.4206577804       -1.0697699395        0.6632645249
  13
  -20.274566799999999        1.4199759143875033E-005 !gc
 N         -0.2017524322       -1.1573580826       -0.1117819098
 C          0.6986546763        0.0239953087       -0.0327693287
 C          2.1700041941       -0.3589940070       -0.1332071765
 C          3.0556454161        0.7523006286       -0.0602333250
 N          3.7625544193        1.6701336676        0.0012090673
 Cl        -3.5406773175       -0.2005359459        0.1411063601
 H         -0.0025482801       -1.8256364009        0.6482427414
 H         -0.0754150263       -1.6614989744       -1.0074733244
 H         -1.1981226046       -0.8886710619       -0.0403290143
 H          0.5222669653        0.5630816875        0.9063065760
 H          0.4485766141        0.7351170906       -0.8294289542
 H          2.3460094485       -0.8978948952       -1.0713714371
 H          2.4197239623       -1.0695479288        0.6629522301
  13
  -20.274553910000002        1.4007387531480135E-005 !mtd13
 N         -0.2012628630       -1.1611435555       -0.1096434406
 C          0.6976563767        0.0215475198       -0.0339384636
 C          2.1695268604       -0.3596208662       -0.1334759089
 C          3.0536225349        0.7529009590       -0.0603703970
 N          3.7597063844        1.6713927483        0.0010719797
 Cl        -3.5385731732       -0.1981704958        0.1405711292
 H         -1.1976797171       -0.8933084638       -0.0388157552
 H         -0.0002856455       -1.8298512045        0.6550853187
 H         -0.0747919653       -1.6655370112       -1.0006890226
 H          0.5206639165        0.5626351684        0.9038690978
 H          0.4465025517        0.7304427605       -0.8322505650
 H          2.3469161925       -0.8983366184       -1.0714922070
 H          2.4196189168       -1.0697049516        0.6629740574
