33
 energy: -46.514065000989 gnorm: 0.000287481898 xtb: 6.5.1 (fef0646)
N            2.77729715514098        0.94646022567466       -3.06711679768473
C            2.53007249895984        1.86984666596217       -1.93327671155248
C            3.15673722083410        1.31346234774136       -0.65451215356431
C            4.65941279039981        1.29707167595141       -0.73636796370927
C            5.37809021515604        2.48570338055822       -0.61016985114578
C            6.75189290163251        2.49329922333281       -0.69761346286049
C            5.35226428477987        0.10892923499975       -0.95509351156738
C            6.73001580362706        0.09959114730410       -1.03152476920644
C            7.44747981468691        1.29442495999133       -0.91165820739100
N            8.82336066072231        1.18411320566741       -0.97173728932378
N            9.47764375624213        2.27636488468487       -1.03839407228448
C           10.85600734137729        2.17523401388647       -1.07485478176873
C           11.56260198924194        0.96492959151703       -1.10093602993298
C           12.94010596288150        0.97456114545800       -1.14241427360316
C           13.63117603118635        2.17909193127541       -1.15761060030796
C           12.93860960326590        3.38092648941637       -1.13411787761283
C           11.55899566498518        3.38493917325724       -1.09540600546549
H            2.42204150656195        1.34019091142047       -3.94580332512400
H            2.31574088285094        0.04470589155880       -2.89832837485697
H            3.78629902402914        0.77790159214020       -3.16225342941305
H            1.45609052936419        1.98804667613371       -1.79565332346272
H            2.96696330692282        2.84143726109410       -2.16238603354763
H            2.78594400197370        0.30741559649205       -0.46084748406093
H            2.85388174267613        1.94643038294132        0.17906182250803
H            4.85427390061499        3.41193543877264       -0.42606772979855
H            7.32003241797271        3.40414620300439       -0.58851097292156
H            4.81692144581430       -0.82516751492273       -1.03584837784898
H            7.27764129297029       -0.81607666559487       -1.18874268382397
H           11.00730033767813        0.03970683577132       -1.09040688400129
H           13.48411864391148        0.04212166385345       -1.16278124574831
H           14.71006389780101        2.17947589541254       -1.18911123494497
H           13.47969711918656        4.31475735850562       -1.14711473948754
H           11.00308625455640        4.30909317674828       -1.07556162448567
