33
 energy: -46.405592005524 gnorm: 0.000513382369 xtb: 6.5.1 (fef0646)
N            3.05970127775964       -0.86268095844932       -3.49538317075535
C            2.50961266587626       -0.15862173500707       -2.30017160430362
C            3.11283732824058       -0.81931913078699       -1.05596981837249
C            4.61232654684012       -0.81350072493476       -1.19569376967247
C            5.36626364695650        0.27993114882410       -0.77720954282500
C            6.72188751560089        0.33281602925629       -1.00476367668855
C            5.26276295337695       -1.86562203418881       -1.85652526493980
C            6.62610692209567       -1.83629570125499       -2.06676920620549
C            7.38097177002418       -0.72471244475040       -1.66169144461556
N            8.73234098662465       -0.79078361371588       -1.71061156728705
N            9.45954932307192        0.14575604385569       -2.12177203829425
C           10.82050374992185        0.03636415389737       -1.93863473964334
C           11.44474863242454       -1.01280896169203       -1.24678725635127
C           12.81450383715641       -1.01562181919807       -1.10337870071458
C           13.57496868798807        0.01709983514638       -1.63931222153963
C           12.96391325192614        1.05845399564810       -2.32385994182338
C           11.59287432543261        1.07318621516180       -2.47699012879179
H            3.04491378043543       -0.28511157888827       -4.34024221110629
H            2.55030355752323       -1.73393244382184       -3.67642624039778
H            4.05561288309468       -1.11261495300161       -3.21764951851877
H            1.42129566225563       -0.20824542176202       -2.30261884703621
H            2.81980017916607        0.88591506353807       -2.34518941853577
H            2.73786269028611       -1.83887095950782       -0.95429629415457
H            2.80547799494271       -0.25909822766467       -0.17480942145517
H            4.87986293939011        1.09694212220196       -0.26537655175294
H            7.30791299485399        1.17265491111468       -0.66609397041396
H            4.71956538508241       -2.76871620149462       -2.11004963281506
H            7.12566278571430       -2.65939859680055       -2.55235903303504
H           10.83422509753280       -1.80330098088391       -0.83635058721481
H           13.29954595427733       -1.82002310641361       -0.57129922853873
H           14.64780078376143        0.00855580346786       -1.52080202551589
H           13.56195376399577        1.85649881094360       -2.73633709481702
H           11.09361012637650        1.87106546115703       -3.00455583187115
