20
 energy: -20.443907091181 gnorm: 0.000398837269 xtb: 6.5.1 (fef0646)
N            1.01753576234184       -0.05131674539401        0.03017939643522
C            2.50097098939457       -0.05188227969257        0.04561894810967
C            3.02511408190226       -0.33780489228503        1.44835829954528
C            4.55326284792092       -0.34397203683477        1.46930346777684
C            5.09773728127935       -0.62513011496740        2.86876040452948
C            6.62180351961294       -0.63143423384096        2.88903188536653
H            0.66269490623961        0.14415947612438       -0.91274917367991
H            0.65891808731787        0.66436513585926        0.67329163803965
H            0.66138644562472       -0.96509989890055        0.33470168629700
H            2.86283146802506        0.91990512462078       -0.28969486410057
H            2.86598776488192       -0.81257144234888       -0.64420540980857
H            2.67085345140442       -1.30968957458541        1.79438226275223
H            2.67280015104341        0.42287595786560        2.14627868918074
H            4.93309476008924        0.62198864812489        1.13106385009068
H            4.93073289462651       -1.10595431938917        0.78468617344314
H            4.73290347463238       -1.59377012374516        3.21735906299887
H            4.73552671896016        0.13576536345077        3.56356838271177
H            7.01296869806553       -1.39804308367235        2.22335367474043
H            6.99155458761530       -0.83242721416618        3.89198014127158
H            7.01549210902197        0.33103625377675        2.56893148429994
