  27
        -28.92848286
 N         -3.8939853810        0.0063809466        0.0736561134
 C         -2.5083473067        0.3918966030       -0.3306273737
 C         -1.4515490743       -0.5504191546        0.2328665019
 C         -0.0142358579       -0.2380001251       -0.2281227304
 C          0.9669327206       -1.3644458078        0.1800018815
 C          2.3976469153       -1.0765041962       -0.3061298741
 C          2.8974133256        0.2807687339        0.2174552177
 C          1.9338189114        1.4134831907       -0.1762467365
 C          0.5015562658        1.1207239638        0.3052639660
 H         -4.5903857112        0.6516440750       -0.3128988673
 H         -3.9869168636        0.0117995926        1.0941840468
 H         -4.1174881748       -0.9374547129       -0.2569945948
 H         -2.3114477047        1.4185400388       -0.0052145580
 H         -2.4419537600        0.4097430276       -1.4242610901
 H         -1.7050092990       -1.5773007980       -0.0488711120
 H         -1.4878699922       -0.5348836575        1.3259277951
 H         -0.0152789194       -0.1831333818       -1.3274751362
 H          0.6127060969       -2.3309001560       -0.1977572209
 H          0.9618430639       -1.4567257111        1.2709197010
 H          2.4148325119       -1.0718357654       -1.4018742392
 H          3.0784163415       -1.8831138342       -0.0050323048
 H          3.9108083957        0.4884951536       -0.1495606928
 H          2.9832344876        0.2396486961        1.3092150297
 H          1.9334635146        1.5272953061       -1.2662125239
 H          2.2854180079        2.3752799126        0.2188467194
 H         -0.1745702316        1.9310912578        0.0115878328
 H          0.4784536590        1.1012265410        1.3995734256
