  25
        -33.06399538
 N         -3.2763499786       -0.5510185286        1.2721775935
 C         -3.2674201813        0.5972853780        0.3187608004
 C         -2.4327697522        0.3219356629       -0.9310426684
 C         -0.9768941449        0.1188194628       -0.6318699676
 C         -0.1649667513        1.1984172191       -0.3185760240
 C          1.1675763406        1.0249422834       -0.0247285248
 C          1.7386330142       -0.2475240726       -0.0323213474
 O          3.0734178050       -0.5293306700        0.2491573250
 C          3.8802804661        0.5839381193        0.5501129849
 C          0.9156787238       -1.3294313328       -0.3455666415
 C         -0.4146463672       -1.1491572483       -0.6386059725
 H         -3.8290104597       -0.3395754161        2.1104825332
 H         -2.3216887498       -0.7789287073        1.5718530305
 H         -3.6764789069       -1.3865242421        0.8309295825
 H         -2.8798680532        1.4846736433        0.8315861454
 H         -4.3003825123        0.8391048958        0.0406529493
 H         -2.5338671314        1.1438757806       -1.6486015162
 H         -2.8232247726       -0.5622332183       -1.4441385496
 H         -0.5897310141        2.1881399472       -0.3114885471
 H          1.7712510888        1.8825323676        0.2119494922
 H          4.8899953284        0.2177290157        0.7419529895
 H          3.5019119753        1.0805414116        1.4455409064
 H          3.9008219007        1.2641835317       -0.3033684874
 H          1.3545109519       -2.3124481580       -0.3528215231
 H         -1.0291230105       -1.9986706075       -0.8837085500
