  25
        -32.95389874
 N         -3.3335166746       -0.7714935949       -1.0987145936
 C         -3.2840774379        0.5427687476       -0.3969959607
 C         -2.4204439680        0.5094989325        0.8631322280
 C         -0.9703771635        0.2422487652        0.5825484610
 C         -0.1275180071        1.2667088036        0.1729820046
 C          1.2033245012        1.0320833810       -0.0929686567
 C          1.7397848652       -0.2485708587        0.0374422822
 O          3.0673088534       -0.5927450739       -0.2047509245
 C          3.9323879691        0.4686039777       -0.5332251774
 C          0.8859769681       -1.2756969565        0.4407722547
 C         -0.4417909584       -1.0347219647        0.7076540074
 H         -3.9185066438       -0.7299131663       -1.9473365724
 H         -3.7271316283       -1.5032836206       -0.4886993980
 H         -2.3916455665       -1.0766140828       -1.3857399903
 H         -4.3075779785        0.8525199023       -0.1488473558
 H         -2.9012654196        1.3045854184       -1.0864536315
 H         -2.8019972530       -0.2560436382        1.5473621033
 H         -2.5064073557        1.4555857856        1.4101978828
 H         -0.5255411205        2.2633595522        0.0712848953
 H          1.8337282922        1.8468667000       -0.4038935987
 H          3.9464269190        1.1969943816        0.2802734930
 H          3.6156407228        0.9253922897       -1.4731210115
 H          4.9339245540        0.0489684821       -0.6572986640
 H          1.3006813819       -2.2654366399        0.5447055316
 H         -1.0793738682       -1.8424845022        1.0285332424
  25
        -32.95340259
 N         -3.1955225354        0.1337190468       -1.4957313218
 C         -3.3633694605       -0.2922284467       -0.0772555819
 C         -2.4351619725        0.4566558919        0.8780212673
 C         -0.9796124748        0.2094816685        0.6069752901
 C         -0.1914782396        1.1708010460       -0.0120956584
 C          1.1429686802        0.9428974840       -0.2656663531
 C          1.7388365159       -0.2667085994        0.0903494432
 O          3.0747651116       -0.5981754729       -0.1212647063
 C          3.8835892548        0.4126399339       -0.6749832220
 C          0.9406523505       -1.2306519380        0.7069838086
 C         -0.3910247185       -0.9964237748        0.9597224394
 H         -3.4054826174        1.1364710198       -1.6093875370
 H         -3.8226838144       -0.3868459385       -2.1280427660
 H         -2.2290921446       -0.0219843253       -1.8190004801
 H         -3.1792123158       -1.3705319513       -0.0022179928
 H         -4.4108482434       -0.1480886645        0.2177416658
 H         -2.6526743695        0.1815377904        1.9170546240
 H         -2.6369009069        1.5309695416        0.8141806713
 H         -0.6337846701        2.1140472038       -0.2886094588
 H          1.7303400367        1.7082109435       -0.7423348243
 H          3.8839396420        1.2847658835       -0.0177998695
 H          3.5248711094        0.6658909647       -1.6747425183
 H          4.8997129035        0.0166474066       -0.7474450425
 H          1.4011100534       -2.1649162233        0.9855411283
 H         -0.9862805308       -1.7527856094        1.4453676713
  25
        -32.95006378
 N         -4.5798961078        0.0602099155       -0.5717062088
 C         -3.1040841222       -0.1000487740       -0.7250490053
 C         -2.3342688031        0.2741568273        0.5378528432
 C         -0.8488480093        0.1013010986        0.3999551713
 C         -0.0404541720        1.1584521879        0.0036944930
 C          1.3197896390        0.9992436190       -0.1428553477
 C          1.9220235061       -0.2354334225        0.0982582007
 O          3.2832272878       -0.5037041468       -0.0211734628
 C          4.0975341419        0.5821741577       -0.3952949076
 C          1.1035050603       -1.2954617732        0.4892494223
 C         -0.2542837475       -1.1302722249        0.6348972682
 H         -4.8272714037        1.0351867652       -0.3474279770
 H         -4.9415213881       -0.5331157429        0.1894479103
 H         -5.0852497631       -0.1979676485       -1.4332819472
 H         -2.7554986817        0.5120355908       -1.5653948878
 H         -2.8773868499       -1.1364189172       -1.0021555133
 H         -2.6919769329       -0.3279463165        1.3800886510
 H         -2.5568584257        1.3106137890        0.8118431661
 H         -0.4900809488        2.1192686668       -0.1876686551
 H          1.9219630696        1.8376764973       -0.4466701631
 H          3.8004177838        0.9430985826       -1.3820446733
 H          5.1274813730        0.2194740154       -0.4405947148
 H          4.0270358939        1.3710776076        0.3565703270
 H          1.5682538039       -2.2502240900        0.6760462750
 H         -0.8670581224       -1.9635918929        0.9386919576
  25
        -32.94820594
 N         -3.9300635255       -1.1168377657        0.0608577967
 C         -3.3313460792        0.0899721316       -0.5837024705
 C         -2.3525985808        0.8417885961        0.3327023934
 C         -0.9043153707        0.4610815534        0.1778249701
 C          0.0879219856        1.4134689193        0.3779356885
 C          1.4229319606        1.0938277128        0.2660023584
 C          1.8196231347       -0.2055641846       -0.0470466428
 O          3.1373396384       -0.6336020363       -0.1864115452
 C          4.1295954904        0.3489313423       -0.0059211545
 C          0.8221313495       -1.1619556227       -0.2365290927
 C         -0.5087745530       -0.8343751884       -0.1227410697
 H         -4.5448290525       -1.6307624373       -0.5886889841
 H         -4.5028392786       -0.8513702105        0.8756296452
 H         -3.2145524606       -1.7766486549        0.3978863322
 H         -4.1522636231        0.7525667910       -0.8897059878
 H         -2.8272389225       -0.1914784750       -1.5160204652
 H         -2.6478693472        0.6934151145        1.3769849641
 H         -2.4415179892        1.9207044072        0.1586606022
 H         -0.1976099411        2.4226523526        0.6278071584
 H          2.1656135836        1.8562862418        0.4246105533
 H          4.0767836258        0.7434383528        1.0109028547
 H          4.0041679440        1.1398744842       -0.7484479633
 H          5.0991918589       -0.1331125746       -0.1543077150
 H          1.1269273169       -2.1682088184       -0.4749518382
 H         -1.2538158185       -1.5948564176       -0.2761182214
  25
        -32.94810377
 N         -3.9219922218        0.6668425950       -1.0650870183
 C         -3.2998703743        0.6177829885        0.2915842562
 C         -2.3900727756       -0.6054687227        0.4965034564
 C         -0.9225773812       -0.3495705735        0.2815327510
 C         -0.4619483700        0.4201964580       -0.7767349022
 C          0.8844552035        0.6205930773       -0.9752097945
 C          1.8316138731        0.0516329935       -0.1242642228
 O          3.1699332488        0.3120058245       -0.4073810071
 C          4.1118648284       -0.2840609956        0.4528706403
 C          1.3686698707       -0.7288264859        0.9346856740
 C          0.0191377217       -0.9239486425        1.1267876393
 H         -4.5335908332       -0.1485207847       -1.2184799152
 H         -3.2192613278        0.6643023606       -1.8176775951
 H         -4.5029267357        1.5106935052       -1.1875356223
 H         -4.1078935045        0.6216436922        1.0356882219
 H         -2.7333141643        1.5381500079        0.4777030527
 H         -2.7106556037       -1.4128998481       -0.1706331252
 H         -2.5252937736       -1.0005732400        1.5102440129
 H         -1.1685273591        0.8704590273       -1.4511194225
 H          1.2401674496        1.2216620991       -1.7961170770
 H          5.1055995692        0.0055426159        0.1023411392
 H          4.0171209428       -1.3710311650        0.4062008191
 H          3.9679951364        0.0862741244        1.4700801820
 H          2.0717386673       -1.1863993583        1.6091785078
 H         -0.3174564315       -1.5373454611        1.9472363971
  25
        -32.94721234
 N         -4.6867552373       -0.1451648781       -0.1006355523
 C         -3.2543434880       -0.5638480731       -0.0616679228
 C         -2.2958038095        0.6246873029       -0.0363322777
 C         -0.8267161468        0.2920416442       -0.0125461201
 C          0.0992942351        1.3274319180       -0.0391815326
 C          1.4541710458        1.0822070742       -0.0138401041
 C          1.9390350111       -0.2235523083        0.0404327970
 O          3.2841592532       -0.5824306279        0.0703920411
 C          4.2082504206        0.4798227900        0.0606125387
 C          1.0081028731       -1.2617839864        0.0674091444
 C         -0.3442551159       -1.0094428828        0.0423203727
 H         -4.9306702443        0.4239246408        0.7232733305
 H         -5.3232274627       -0.9566037252       -0.1161692766
 H         -4.8865803231        0.4212759916       -0.9384879964
 H         -3.0408600561       -1.1953524616       -0.9320845670
 H         -3.0892158737       -1.1945595463        0.8196665717
 H         -2.5256926970        1.2489900283        0.8339840222
 H         -2.4946261058        1.2584414286       -0.9070191134
 H         -0.2570668082        2.3442244071       -0.0799977715
 H          2.1433151402        1.9084210333       -0.0366580071
 H          5.2096304510        0.0438694201        0.0979992506
 H          4.0569655744        1.1078450652        0.9411204670
 H          4.1003140711        1.0532203218       -0.8624937444
 H          1.3817217153       -2.2722512210        0.1094757103
 H         -1.0328538613       -1.8372073219        0.0659540233
  25
        -32.94702601
 N         -3.6834583957        1.3390313261       -0.7892820596
 C         -3.2695373920       -0.0888420683       -0.6487827081
 C         -2.4470477527       -0.3570546001        0.6220718332
 C         -0.9530573034       -0.3209922815        0.4404039619
 C         -0.3341580694        0.5731429863       -0.4225619255
 C          1.0358513472        0.6105116180       -0.5576075357
 C          1.8471261393       -0.2508895229        0.1798808901
 O          3.2375577319       -0.2974561834        0.1197913612
 C          3.8506310811        0.6131206675       -0.7617682723
 C          1.2242433871       -1.1419691535        1.0536229574
 C         -0.1449179278       -1.1728205794        1.1825227547
 H         -2.8797183231        1.9825666984       -0.7759845656
 H         -4.3064341180        1.6179280484       -0.0169175213
 H         -4.1975021614        1.5022547532       -1.6688911257
 H         -2.7033546258       -0.4058905379       -1.5327854134
 H         -4.1778244954       -0.7065869892       -0.6524570845
 H         -2.7168249830       -1.3370573675        1.0343100172
 H         -2.7273135298        0.3664037609        1.3947597900
 H         -0.9382869313        1.2481650886       -1.0023714330
 H          1.4834266165        1.3130930009       -1.2387644657
 H          3.6158800724        1.6351789601       -0.4574820498
 H          3.5214223510        0.4146444810       -1.7838855404
 H          4.9303808705        0.4573209334       -0.6950628500
 H          1.8495872846       -1.8063830195        1.6282164779
 H         -0.6000369399       -1.8663988839        1.8713916152
  25
        -32.94681899
 N         -4.6028501613        0.5197058493       -0.4051294583
 C         -3.1226881295        0.6908008761       -0.4979455308
 C         -2.3586652680       -0.4067695217        0.2390997537
 C         -0.8555960310       -0.3155393058        0.1954364500
 C         -0.1736640965        0.7064515858       -0.4544226398
 C          1.2031531873        0.7530375394       -0.4680094904
 C          1.9568979325       -0.2288074732        0.1735391317
 O          3.3478625396       -0.2744082423        0.2201571663
 C          4.0239858932        0.7704088810       -0.4381850792
 C          1.2701743480       -1.2530658606        0.8247178595
 C         -0.1046017562       -1.2933068373        0.8342454779
 H         -5.1075893287        1.2665562634       -0.9063241333
 H         -4.9187584638        0.5367503802        0.5757356301
 H         -4.8997681834       -0.3806189325       -0.8101735372
 H         -2.8488081029        1.6718512056       -0.0925193095
 H         -2.8282187751        0.7045948938       -1.5538638066
 H         -2.6596035414       -1.3800613596       -0.1636684323
 H         -2.6759006760       -0.4177110629        1.2872262961
 H         -0.7278082784        1.4798018520       -0.9589502442
 H          1.7010392487        1.5576793116       -0.9805103251
 H          5.0957069039        0.5985469900       -0.3112344797
 H          3.7571629406        1.7264089346        0.0172186751
 H          3.7811183889        0.7530843007       -1.5027387108
 H          1.8500941862       -2.0140292483        1.3218988192
 H         -0.6122594086       -2.0956807934        1.3454298918
