48
 energy: -82.513984199040 gnorm: 0.000729823170 xtb: 6.5.1 (fef0646)
N            3.20101814730551        0.74995380497223        0.33188249635266
C            2.88550404339004        1.49907949843888       -0.87398682636738
C            4.04192583202635        2.37921246063342       -1.39579354857485
C            5.18462714759148        1.55930789528463       -1.88245540757192
C            5.46281555159613        1.17622668396537       -3.16148650490756
C            6.59595424189575        0.35283657919173       -3.26768625747688
C            7.19319383768031        0.09381176579643       -2.06041739271341
C            8.33983068333472       -0.70499129808682       -1.79224574268710
C            8.92351283157717       -0.97985002611568       -0.57862751803526
C           10.04232534457784       -1.81915998018991       -0.65540116620296
C           10.80896783607968       -2.23910251923209        0.55146918179077
C           10.32686391264056       -2.19667712780283       -1.96103010009230
C           11.36205113035941       -3.04065950272249       -2.44561202713750
C           11.63827423406249       -3.39275838793140       -3.75852707394073
C           10.93705589446069       -2.95150957390430       -4.89223003992962
N           10.39857195199376       -2.61519975529735       -5.84836578844390
C           12.74843015403138       -4.27784134775781       -3.88817030376890
C           13.15509469237443       -4.73095389776839       -5.15442544509326
N           13.44494588481010       -5.06988208297666       -6.21149164904446
C           13.33480089629715       -4.61153563303389       -2.67799992925463
C           14.44850792254535       -5.46725591087680       -2.44160582761685
C           15.04814918651649       -5.80388161728068       -1.23921443666766
C           14.63340722820083       -5.31610301280848        0.10665602445354
C           16.13159345688749       -6.68768508279428       -1.42157517865913
C           16.35138398707758       -7.01512428443629       -2.72189180723703
S           15.24364832839119       -6.25666415137831       -3.78357191605608
S           12.49809488294150       -3.81417526665140       -1.37350927710993
S            9.18721992147779       -1.49319781574272       -3.08497993990374
S            6.33823919052057        0.89068436882366       -0.76877413285396
Cl           0.86069120774955       -0.80671159801250        1.21553003484969
H            1.94187480839477       -0.09331791822288        0.80484658493401
H            3.45738420477352        1.37505557563032        1.08923523598002
H            3.97327738045953        0.11045626676444        0.17135579198166
H            2.02620526142543        2.13578525119222       -0.65449862798422
H            2.59607311808631        0.78364208399830       -1.64664097749495
H            4.37090441270050        3.04299103434295       -0.59216119688674
H            3.66927499413187        2.99091934451254       -2.21847665159222
H            4.87158545427536        1.48305745447489       -4.00566614946872
H            6.97115162476596       -0.04326339542103       -4.19449091761317
H            8.54588649865714       -0.58234640234950        0.34753994591537
H           10.37795578948589       -1.78236762445099        1.43792777151257
H           11.85299397793027       -1.93649760429934        0.47594347003767
H           10.78250886724216       -3.32200865335605        0.67080124306029
H           13.60403058349728       -5.60131448485372        0.32507634441940
H           14.69879871099350       -4.22948123631756        0.16546218547231
H           15.27982917790467       -5.74368822795116        0.86846384677460
H           16.72421984833430       -7.06373300781554       -0.60679786171885
H           17.10453572654627       -7.66226164018765       -3.12513253741023
