  36
        -50.91034414
 N         -4.4196029405        0.7464218047       -1.6430954411
 C         -4.5365055251        1.8196427016       -0.6146191559
 C         -3.9461946341        1.3944254591        0.7281516718
 C         -2.5109030682        0.9718739184        0.6250167600
 C         -1.4897826204        1.9099092523        0.6599850311
 C         -0.1724277504        1.5260244471        0.5299662594
 C          0.1689340159        0.1844045367        0.3524536054
 C          1.5494028705       -0.2632083262        0.2146580429
 C          2.6178258113        0.5379013739        0.0934237272
 C          3.9981637804        0.0876136499       -0.0411108461
 C          4.9928986264        1.0088846386       -0.3751568835
 C          6.3073931608        0.6165675414       -0.5094435401
 C          6.6599017613       -0.7036770014       -0.3102349952
 C          5.6924966329       -1.6301392892        0.0259186364
 C          4.3764791001       -1.2415367909        0.1603515445
 C         -0.8650424125       -0.7518411316        0.3121890694
 C         -2.1798145752       -0.3624197195        0.4418542049
 Cl        -5.1738703718       -2.2900432559       -0.0300293335
 H         -4.9227069682        0.9760874951       -2.5118867032
 H         -4.7936116781       -0.1451705621       -1.2760848716
 H         -3.4328006182        0.5783499983       -1.8826047842
 H         -5.5897488581        2.1009858958       -0.4925508639
 H         -4.0288281857        2.7226166458       -0.9736819785
 H         -4.5314349143        0.5648230036        1.1394761988
 H         -4.0331802468        2.2041766997        1.4621519183
 H         -1.7393229057        2.9498594338        0.7894949564
 H          0.6007361914        2.2726864180        0.5739354189
 H          1.6998608282       -1.3277473557        0.1928248972
 H          2.4647348191        1.6020871202        0.0732365062
 H          4.7204021297        2.0389441204       -0.5322770249
 H          7.0616603761        1.3414103505       -0.7706502929
 H          7.6882590783       -1.0100709937       -0.4152571613
 H          5.9679985909       -2.6602733159        0.1857284733
 H          3.6356458376       -1.9715060063        0.4364291921
 H         -0.6241911982       -1.7922562597        0.1717063099
 H         -2.9690644632       -1.0941291330        0.3900949921
