  36
        -50.82784275
 N         -4.4231952868        0.2915916677        1.6443565621
 C         -4.7982066945        1.3747237955        0.6951547080
 C         -4.1232047673        1.2000377122       -0.6632576091
 C         -2.6286830967        1.1064332425       -0.5596949457
 C         -1.8461997289        2.2510283432       -0.5082827750
 C         -0.4765698760        2.1626698137       -0.3731774960
 C          0.1591835680        0.9243280123       -0.2793964137
 C          1.6107823209        0.8704935407       -0.1347812944
 C          2.3508239058       -0.2475563867       -0.1389860336
 C          3.8021977357       -0.3018496833        0.0093971782
 C          4.5678844523        0.8218814556        0.3277359023
 C          5.9380669312        0.7294722043        0.4623543325
 C          6.5739080912       -0.4835526677        0.2841398072
 C          5.8344659410       -1.6076089848       -0.0282025315
 C          4.4645222959       -1.5188378149       -0.1631814895
 C         -0.6352595451       -0.2218703116       -0.3184452989
 C         -2.0048731512       -0.1288319495       -0.4537769125
 Cl        -4.4807521650       -2.7094976634       -0.1373992584
 H         -4.9619114478        0.3307331411        2.5257176163
 H         -3.4214763221        0.3466815637        1.8856858876
 H         -4.5752723183       -0.6394191284        1.2125738263
 H         -4.5216968990        2.3446392909        1.1261200470
 H         -5.8890027885        1.4020258772        0.5771004753
 H         -4.3895811184        2.0237018160       -1.3369473000
 H         -4.5022562810        0.2924863353       -1.1476443234
 H         -2.3229344472        3.2154073931       -0.5721876671
 H          0.1187653041        3.0604335259       -0.3384062642
 H          2.1091668879        1.8180361073       -0.0307497766
 H          1.8559856189       -1.1930275333       -0.2747701561
 H          4.0855504317        1.7721188445        0.4801087362
 H          6.5148591546        1.6071793233        0.7092883464
 H          7.6454360417       -0.5533123970        0.3900472283
 H          6.3291289409       -2.5561973602       -0.1666450743
 H          3.8899049910       -2.3974241614       -0.4076846080
 H         -0.1791584641       -1.1930259573       -0.2305124199
 H         -2.6096583707       -1.0216267920       -0.4639145734
