  17
        -17.16741937
 N         -1.8870565998        0.5837884166       -0.3076775075
 C         -1.0637502074       -0.2080456573        0.6564276747
 C          0.0536290893       -1.0095312501       -0.0103023924
 C          1.1611546845       -0.1603732106       -0.6494439142
 C          1.9960342139        0.6304976684        0.3501539044
 H         -1.3295127495        1.3006878785       -0.7927061094
 H         -2.6612572500        1.0709933645        0.1678417264
 H         -2.3053858030       -0.0248769181       -1.0257816801
 H         -1.7319880605       -0.8855308199        1.2048987233
 H         -0.6478911702        0.4641171308        1.4152619125
 H         -0.3932811181       -1.6622840695       -0.7699184115
 H          0.5073412054       -1.6904135191        0.7201752640
 H          0.7207490719        0.5197786209       -1.3873661377
 H          1.8255507044       -0.8121189614       -1.2328880425
 H          1.3933475217        1.3555551690        0.8975084006
 H          2.7985184481        1.1856308273       -0.1402261723
 H          2.4617738465       -0.0271125127        1.0857822183
