17
 energy: -17.168510774568 gnorm: 0.000389385430 xtb: 6.5.1 (fef0646)
N            0.93582571615226       -0.06419729757076       -0.04283630204649
C            2.43466813109718       -0.08178436563877       -0.03868607069258
C            2.95120056917655       -1.47952871746016        0.26643138321554
C            4.48338184671996       -1.50766880315992        0.27197476109699
C            5.00557029230871       -2.90584007377901        0.57730769877289
H            0.56937646592653        0.87387698879877       -0.24731945092331
H            0.58357325591933       -0.36653304610338        0.87529294189579
H            0.58391146591565       -0.72112877304617       -0.75209429733324
H            2.78522744280642        0.62579414718609        0.71383850601574
H            2.78557724770886        0.24799124748013       -1.01744067248619
H            2.59105046530548       -2.18453289859639       -0.48538877457535
H            2.59171510682850       -1.80678356139753        1.24399985791166
H            4.85598039666296       -0.80888450257035        1.02197238537357
H            4.85529119169572       -1.18550832686710       -0.70143304477772
H            4.66546932717512       -3.24048090031280        1.55396441193170
H            6.09104399612681       -2.90600652987482        0.57701573856654
H            4.66494708247395       -3.61728458708783       -0.17057907194554
