  46
        -73.42564440
 N         -7.1615303526       -0.0433450379       -1.9007664698
 C         -7.7648446536        0.9926975074       -1.0193230547
 C         -7.1540482793        0.9614561501        0.3792644710
 C         -5.6752376027        1.1164384279        0.3561212898
 C         -5.0109325833        2.3014095542        0.3437922885
 C         -3.5991249440        2.1634128516        0.2989709960
 C         -3.1765655398        0.8642207713        0.2740756123
 C         -1.8022437611        0.4305555300        0.2237377576
 C         -1.3803607147       -0.8703475266        0.1980251410
 C          0.0315716042       -1.0343966705        0.1460826192
 C          0.6742846274       -2.3769857909        0.1125356312
 C          0.7098106533        0.1671370237        0.1311892439
 C          2.1363266941        0.3779577722        0.0793118382
 C          2.7367959809        1.6106052305        0.0840900957
 C          4.1490439415        1.5675732968        0.0249703317
 C          4.6709564133        0.3019416589       -0.0274683558
 C          6.0841565767        0.0049695465       -0.0943703648
 C          6.6856285493       -1.2326161653       -0.1572653690
 C          5.9624321033       -2.5339715774       -0.1685177099
 C          8.1121775562       -1.1501770140       -0.2131301980
 C          8.5908117180        0.1145987935       -0.1936818596
 S          7.3040838633        1.2527388159       -0.1060304350
 S          3.3669862828       -0.8521662857       -0.0000793976
 S         -0.4262416983        1.4872024529        0.1848487642
 S         -4.5513259973       -0.2072328099        0.3095340210
 Cl        -6.8886334586       -2.6325791101        0.3226563310
 H         -6.1675248602        0.1657267514       -2.0827269000
 H         -7.6429776777       -0.1287583397       -2.8106869762
 H         -7.1860752779       -0.9641582641       -1.4262609480
 H         -8.8508705149        0.8463090323       -0.9644283514
 H         -7.6187392720        1.9821039575       -1.4692457726
 H         -7.3970039247        0.0100370008        0.8660874634
 H         -7.5928897822        1.7412301705        1.0139380686
 H         -5.5147370020        3.2564065089        0.3610148914
 H         -2.9167062767        2.9991883841        0.2834064444
 H         -2.0660647684       -1.7025476817        0.2152252243
 H          1.2639432085       -2.5014111736       -0.7971508376
 H         -0.0708294877       -3.1727820167        0.1404654273
 H          1.3384978194       -2.5096037335        0.9675909690
 H          2.1726498105        2.5296789192        0.1289955111
 H          4.7694673693        2.4505992634        0.0205296272
 H          6.6575456616       -3.3723258926       -0.2282897071
 H          5.2889505969       -2.5952554008       -1.0247026422
 H          5.3685685985       -2.6547348231        0.7386705283
 H          8.7426214193       -2.0255543681       -0.2662714822
 H          9.6287360604        0.3898464960       -0.2275132667
