  46
        -73.50976421
 N         -6.3520820927        3.7921130899       -0.1181804712
 C         -7.2176491781        2.8031052305        0.5870119659
 C         -7.2848915657        1.4541782251       -0.1329830571
 C         -6.0142354294        0.6745236540       -0.0859273868
 C         -5.9221378912       -0.6811594643       -0.0512145989
 C         -4.5896783883       -1.1735696719       -0.0287728001
 C         -3.6333082033       -0.1958829431       -0.0476415222
 C         -2.2071462905       -0.3978104928       -0.0333673382
 C         -1.5646698193       -1.6058210825       -0.0083657946
 C         -0.1482846724       -1.5266858609        0.0013038036
 C          0.7118108343       -2.7413098275        0.0282788026
 C          0.3183565271       -0.2286940437       -0.0158036102
 C          1.6860684354        0.2213211714       -0.0111103483
 C          2.0663162463        1.5382429422       -0.0157507201
 C          3.4630824770        1.7405729908       -0.0088461245
 C          4.2010417734        0.5865356246        0.0005735507
 C          5.6438987781        0.5431857589        0.0091423496
 C          6.4567520788       -0.5676341163        0.0093889287
 C          5.9769292467       -1.9770849711       -0.0005684926
 C          7.8456089556       -0.2358918041        0.0197420970
 C          8.0952513262        1.0922162046        0.0270704525
 S          6.6254707219        1.9911132937        0.0213288967
 S          3.1157869410       -0.7818751667        0.0010520696
 S         -1.0288840680        0.8820738021       -0.0451859821
 S         -4.4172936957        1.3603322134       -0.0916079545
 Cl        -3.5044731417       -4.4955098166        0.0509262835
 H         -5.4141511296        3.3947296217       -0.2375287088
 H         -6.2638755239        4.6784003511        0.4018540535
 H         -6.7188953236        4.0024835033       -1.0550930163
 H         -8.2235751010        3.2250486138        0.7010263059
 H         -6.8445624275        2.6494048829        1.6063303312
 H         -7.5607419814        1.6138691406       -1.1805886670
 H         -8.0873476352        0.8409417104        0.2933250787
 H         -6.7883876668       -1.3248428132       -0.0463780649
 H         -4.3509438801       -2.2252124248       -0.0009197143
 H         -2.0906940610       -2.5465739243        0.0041148954
 H          0.1110422496       -3.6507055496        0.0436307695
 H          1.3479359223       -2.7458941500        0.9138291316
 H          1.3547644120       -2.7801475450       -0.8514776800
 H          1.3519655657        2.3462513051       -0.0233469613
 H          3.9184430245        2.7178649002       -0.0108619421
 H          6.8112421008       -2.6788334583       -0.0009388242
 H          5.3735602823       -2.1744672521       -0.8870801527
 H          5.3661019415       -2.1843536479        0.8780892747
 H          8.6207389210       -0.9868360417        0.0212776556
 H          9.0690608520        1.5435388257        0.0352833740
