  22
        -27.83344604
 N         -3.4897256826        0.1923569768        0.8117668740
 C         -2.7755871881        0.1411611950       -0.5014626505
 C         -1.2943229660        0.0114055760       -0.3421570424
 C         -0.7012996636       -1.2438305727       -0.2056325884
 C          0.6580904592       -1.3698741715       -0.0360630989
 C          1.4959886981       -0.2333912519        0.0105031627
 C          2.9049923636       -0.3972692697        0.1823901565
 C          3.8147929594        0.5970057856        0.2342521083
 C          0.8809277524        1.0319172693       -0.1183181408
 C         -0.4803184686        1.1433377847       -0.2870754904
 H         -3.1687889972        0.9932192324        1.3751184779
 H         -3.3129468696       -0.6609784134        1.3617521605
 H         -4.5102810342        0.2821672569        0.6915786299
 H         -3.0061524446        1.0422453116       -1.0807355688
 H         -3.1557801483       -0.6978952267       -1.0949151497
 H         -1.3220177231       -2.1233849003       -0.2384588143
 H          1.0972905618       -2.3481252323        0.0607981153
 H          3.2613826676       -1.4108985241        0.2763460551
 H          3.5376586421        1.6271788270        0.1443530773
 H          4.8596474721        0.3913704427        0.3654994449
 H          1.4823606092        1.9228259736       -0.0850941626
 H         -0.9307054491        2.1169913038       -0.3829620483
