  22
        -27.83344604
 N         -3.4897256826        0.1923569768        0.8117668740
 C         -2.7755871881        0.1411611950       -0.5014626505
 C         -1.2943229660        0.0114055760       -0.3421570424
 C         -0.7012996636       -1.2438305727       -0.2056325884
 C          0.6580904592       -1.3698741715       -0.0360630989
 C          1.4959886981       -0.2333912519        0.0105031627
 C          2.9049923636       -0.3972692697        0.1823901565
 C          3.8147929594        0.5970057856        0.2342521083
 C          0.8809277524        1.0319172693       -0.1183181408
 C         -0.4803184686        1.1433377847       -0.2870754904
 H         -3.1687889972        0.9932192324        1.3751184779
 H         -3.3129468696       -0.6609784134        1.3617521605
 H         -4.5102810342        0.2821672569        0.6915786299
 H         -3.0061524446        1.0422453116       -1.0807355688
 H         -3.1557801483       -0.6978952267       -1.0949151497
 H         -1.3220177231       -2.1233849003       -0.2384588143
 H          1.0972905618       -2.3481252323        0.0607981153
 H          3.2613826676       -1.4108985241        0.2763460551
 H          3.5376586421        1.6271788270        0.1443530773
 H          4.8596474721        0.3913704427        0.3654994449
 H          1.4823606092        1.9228259736       -0.0850941626
 H         -0.9307054491        2.1169913038       -0.3829620483
  22
        -27.82988027
 N         -3.6110800460        0.7121753823        0.2586829217
 C         -2.7688184495       -0.4261053414       -0.2295969923
 C         -1.2899396341       -0.2096693198       -0.1161105046
 C         -0.4215686344       -1.2987599997       -0.2176590775
 C          0.9427428398       -1.1357741365       -0.1419999815
 C          1.5123399019        0.1439003070        0.0378296110
 C          2.9221577184        0.3619239480        0.1197627979
 C          3.8744306965       -0.5891457784        0.0327403020
 C          0.6253942171        1.2388752177        0.1345119610
 C         -0.7366679161        1.0593663781        0.0563111700
 H         -4.6148263969        0.4766836505        0.2328120964
 H         -3.4838295857        1.5540575072       -0.3219919303
 H         -3.3770065436        0.9549285386        1.2326241857
 H         -3.0193755608       -0.6370539087       -1.2754378544
 H         -3.0373319248       -1.3283939130        0.3317227858
 H         -0.8345558262       -2.2832573515       -0.3614205765
 H          1.5814568280       -1.9970404816       -0.2229511977
 H          3.2414659420        1.3821854327        0.2625689206
 H          3.6349720091       -1.6225952839       -0.1116450711
 H          4.9166463756       -0.3437373236        0.1033353166
 H          1.0289510703        2.2281292169        0.2691856276
 H         -1.3870920082        1.9125985769        0.1298759451
  22
        -27.82975051
 N         -3.6324976722       -0.6465813801       -0.0976910128
 C         -2.7533147860        0.5643510049       -0.0346613890
 C         -1.2822999157        0.2768500541       -0.0104386334
 C         -0.7781633246       -1.0032749895        0.2208246071
 C          0.5767899419       -1.2411282311        0.2537910375
 C          1.5058942341       -0.1957134416        0.0572187637
 C          2.9069250040       -0.4739203007        0.0949637311
 C          3.8958097188        0.4275180381       -0.0736941157
 C          0.9858021181        1.0974773531       -0.1702755348
 C         -0.3720461641        1.3188612341       -0.2001166098
 H         -3.4029535800       -1.2297438083       -0.9158341393
 H         -4.6274159498       -0.3860993408       -0.1756137899
 H         -3.5374787417       -1.2268763897        0.7487195558
 H         -3.0156468427        1.1529044258        0.8518653032
 H         -2.9730236165        1.2046020456       -0.8967107152
 H         -1.4615043094       -1.8191634391        0.3749104976
 H          0.9417642175       -2.2381489842        0.4326625785
 H          3.1868441291       -1.4997931653        0.2756103315
 H          3.6962027054        1.4634586134       -0.2551897891
 H          4.9282823503        0.1384469655       -0.0313554222
 H          1.6577140981        1.9236310900       -0.3208973351
 H         -0.7474785146        2.3141245144       -0.3704642297
  22
        -27.82971052
 N         -3.4773512945        0.9865067969        0.3053634719
 C         -2.8060630348       -0.2519102176       -0.2036418987
 C         -1.3093687923       -0.2378244573       -0.1218084538
 C         -0.5976392043       -1.4279627281       -0.2858670686
 C          0.7769681756       -1.4491789952       -0.2372253506
 C          1.5175161919       -0.2658920505       -0.0227015929
 C          2.9447304557       -0.3194020958        0.0220127726
 C          3.7681096372        0.7300493106        0.2208191585
 C          0.7885552274        0.9332439601        0.1370860596
 C         -0.5870346770        0.9377497999        0.0855902049
 H         -3.1993607497        1.1859989028        1.2775084580
 H         -4.5042271400        0.8907670088        0.2927367320
 H         -3.2437205198        1.8080197094       -0.2714540064
 H         -3.1045288837       -0.4211669754       -1.2445006927
 H         -3.1817773402       -1.1131852809        0.3606130030
 H         -1.1407363951       -2.3426179931       -0.4559136706
 H          1.3030501491       -2.3797844461       -0.3660279542
 H          3.3921267093       -1.2909127781       -0.1171907766
 H          3.3978280334        1.7238444437        0.3672955190
 H          4.8339537973        0.6075503972        0.2401678412
 H          1.3131714802        1.8578325837        0.2996451743
 H         -1.1168208009        1.8654466064        0.2086101868
  22
        -27.82963926
 N         -3.6361834581       -0.6436317368       -0.0094171397
 C         -2.7521950335        0.5630456819       -0.0841481459
 C         -1.2816276262        0.2753942604       -0.0388078687
 C         -0.7789455853       -1.0038135023        0.2006606957
 C          0.5757732420       -1.2408879770        0.2469196216
 C          1.5061552004       -0.1957646108        0.0548825227
 C          2.9069688711       -0.4725716492        0.1087860348
 C          3.8966733096        0.4292843512       -0.0526615675
 C          0.9874955546        1.0958698186       -0.1845002041
 C         -0.3701238748        1.3163813092       -0.2277413036
 H         -4.6322560861       -0.3855419795       -0.0788944533
 H         -3.5142949407       -1.1445662615        0.8830602327
 H         -3.4363087336       -1.3002891986       -0.7783215823
 H         -3.0059235910        1.2432687572        0.7369072431
 H         -2.9765701965        1.1092922840       -1.0074863907
 H         -1.4632746147       -1.8194880743        0.3511213942
 H          0.9395820810       -2.2370775760        0.4326658800
 H          3.1857909335       -1.4974439438        0.2964282789
 H          3.6981851444        1.4642720287       -0.2413562311
 H          4.9288753621        0.1413365437        0.0025654471
 H          1.6603516306        1.9212194905       -0.3351934507
 H         -0.7445595743        2.3100265100       -0.4093599024
  22
        -27.82961555
 N         -3.4724251735        1.0512798252       -0.0122918932
 C         -2.8096159692       -0.2917717412       -0.0057792650
 C         -1.3110169909       -0.2580804724       -0.0207769272
 C         -0.5972234983       -1.4385658991       -0.2370543880
 C          0.7783448865       -1.4494919595       -0.2412057804
 C          1.5177673725       -0.2660922072       -0.0234152545
 C          2.9460110502       -0.3093188633       -0.0315768795
 C          3.7686634270        0.7413714065        0.1637803851
 C          0.7865972237        0.9218648845        0.1978535074
 C         -0.5899490527        0.9161334617        0.1987007037
 H         -3.1750621618        1.6084716999       -0.8267090928
 H         -3.2522237528        1.5849656677        0.8414793039
 H         -4.4991189313        0.9643337435       -0.0583791250
 H         -3.1580888441       -0.8613383979       -0.8749963440
 H         -3.1437971409       -0.8524269480        0.8746238804
 H         -1.1397681722       -2.3547020109       -0.4008136635
 H          1.3060721621       -2.3725715623       -0.4109634855
 H          3.3949010898       -1.2736526290       -0.2102066679
 H          3.3971177653        1.7285485852        0.3470651594
 H          4.8353424290        0.6266429745        0.1431102130
 H          1.3102775052        1.8453764525        0.3693427251
 H         -1.1213202408        1.8350001257        0.3709970066
  22
        -27.82952451
 N         -3.5132699618       -0.8894471471        0.1700656832
 C         -2.7950145876        0.3949769105       -0.1080101324
 C         -1.2989305606        0.3028321889       -0.0850984494
 C         -0.6286814232       -0.8594778515        0.2979366636
 C          0.7464161187       -0.9193615313        0.3188676330
 C          1.5276743586        0.1989217597       -0.0467739636
 C          2.9565215986        0.1836763358       -0.0415345709
 C          3.7335678198       -0.8649617837        0.2981640182
 C          0.8394778653        1.3711284212       -0.4304836618
 C         -0.5353316565        1.4146848642       -0.4462235471
 H         -3.3048342985       -1.2395724861        1.1167148205
 H         -3.2501808327       -1.6184712740       -0.5094142257
 H         -4.5358314914       -0.7695289692        0.1091237920
 H         -3.1151496921        1.1482946145        0.6208995203
 H         -3.1100733158        0.7715955871       -1.0879227126
 H         -1.1989719064       -1.7259394494        0.5813270515
 H          1.2300217667       -1.8316256777        0.6189518631
 H          3.4462964221        1.0977142429       -0.3381192592
 H          3.3199948434       -1.8044922031        0.6020393773
 H          4.8042501064       -0.7969441203        0.2762301971
 H          1.4061969770        2.2417445805       -0.7144278785
 H         -1.0385572703        2.3204000516       -0.7411354197
