  42
        -47.42366672
 N          0.7111307262        1.5264551235        1.1627132146
 C          2.1378585310        1.9399886742        1.2449216967
 C          3.0317928901        1.2721594848        0.1958950811
 C          3.5620095086       -0.1136874800        0.5868050677
 C          2.5172312926       -1.2323579453        0.6370347826
 C          1.8184473463       -1.4774438009       -0.7016911412
 C          0.9072502991       -2.7080361684       -0.6987263218
 C         -0.3113073133       -2.5878683272        0.2207748123
 C         -1.3170413700       -1.5307728934       -0.2344236769
 C         -2.5601674795       -1.4724793349        0.6536446714
 C         -3.6120053273       -0.4700180943        0.1705068247
 C         -3.1563923329        0.9915160393        0.2142598526
 C         -2.8806062111        1.4931435113        1.6228215499
 Cl        -0.3170673985        1.5578241127       -2.1501021600
 H          0.5772174485        0.5431255673        1.4394596464
 H          0.3559576139        1.6205847796        0.1929436378
 H          0.1064084333        2.0994489632        1.7750099249
 H          2.5287857983        1.7447936732        2.2505579748
 H          2.1830342771        3.0312591331        1.1262840267
 H          3.8880198856        1.9294381362       -0.0141455140
 H          2.4909994403        1.2115612151       -0.7552600812
 H          4.0701791379       -0.0372763664        1.5570083784
 H          4.3479757297       -0.4109838949       -0.1209369517
 H          1.7797258503       -1.0222709751        1.4178327558
 H          2.9960161571       -2.1670827953        0.9593230463
 H          2.5824592653       -1.5836751472       -1.4834650823
 H          1.2425919425       -0.5916085991       -0.9908446751
 H          1.5015935742       -3.5865066171       -0.4144426948
 H          0.5597206578       -2.9153682173       -1.7194680996
 H          0.0117270635       -2.3702936195        1.2457723566
 H         -0.8235160390       -3.5570699403        0.2878869492
 H         -1.6158354575       -1.7305801384       -1.2710863135
 H         -0.8348848787       -0.5477615884       -0.2625697694
 H         -2.2636483665       -1.2388360797        1.6830520275
 H         -3.0019301560       -2.4762928634        0.7106914806
 H         -4.5251077045       -0.5734211625        0.7717351758
 H         -3.9100062559       -0.7354860434       -0.8524970092
 H         -3.9181518024        1.6283496874       -0.2578180371
 H         -2.2633410596        1.1176776757       -0.4105791351
 H         -2.0746548542        0.9316329336        2.0992270469
 H         -3.7629552058        1.3896996180        2.2583729624
 H         -2.5914621809        2.5473575830        1.6332871081
