28
 energy: -33.804745087035 gnorm: 0.000571496396 xtb: 6.5.1 (fef0646)
N            0.88067072225992        0.04510352149181       -0.39591280107451
C            2.33550364635009       -0.05000225161916       -0.48689058403575
C            2.95677924157782        0.98713421172542       -1.42616636400624
C            4.48847928968851        0.94370387876884       -1.45380709875046
C            5.04236152381575        2.18850562306864       -2.15263835261887
C            6.56790155516515        2.17570525165110       -2.16855228810273
C            7.08381535943611        0.92232052414622       -2.86711251879683
C            6.53945997578652       -0.32393261772405       -2.17735405851841
C            5.01324015064526       -0.30729609851592       -2.16090539131675
Cl          -0.19511000403477       -2.01198388566727        1.40301604663993
H            0.31231037724620       -1.05395203868139        0.57275226465372
H            0.45598541166957       -0.09494035250866       -1.30712542117134
H            0.60070866211724        0.95791333128143       -0.05112269344628
H            2.57102783506566       -1.06100802075046       -0.82288503256970
H            2.73675154335259        0.07569879900632        0.52132653105412
H            2.64096246852080        1.98271879747886       -1.09839795744174
H            2.57317739352123        0.83514203117168       -2.43935263874639
H            4.85190101172011        0.93819774948031       -0.41984046257837
H            4.68858146918589        3.08733071553580       -1.64201084515958
H            4.66961684461800        2.21941265890401       -3.17952067546527
H            6.94004065998009        2.19647285703461       -1.14132330984944
H            6.93979054355090        3.06790954599898       -2.67701567417981
H            8.17544302226184        0.91005422675944       -2.85431278513046
H            6.76102225056067        0.92965967828064       -3.91086776749609
H            6.91084795595322       -0.36059002673555       -1.15060308888776
H            6.89208410683989       -1.21987135964815       -2.69218371028339
H            4.64871707653980       -1.20471592093812       -1.65859787257350
H            4.64129990612689       -0.32101082907733       -3.18859545009412
