27
 energy: -35.324769754669 gnorm: 0.000494915510 xtb: 6.5.1 (fef0646)
N            1.66965609470651        0.73774254929645       -1.13536628983378
C            2.41697681381720       -0.04052566177418       -0.06401106346516
C            3.59515254281205        0.79799325006282        0.39980026547359
C            2.81778162553135       -1.37197593881347       -0.64630196907172
C            2.33853956000214       -2.55814791301954       -0.05874137259488
C            2.69440708825045       -3.77501304338264       -0.56838352560817
C            3.64024468812036       -1.43927102496445       -1.74522415164700
C            4.02180691329327       -2.67823752437763       -2.29394799021338
C            3.53940911983158       -3.87296008516661       -1.69244870228278
C            3.92641952815999       -5.11512311673858       -2.23609499468847
C            4.75440525648440       -5.17011827796278       -3.32267382091819
C            5.23081671252873       -3.98933436834300       -3.91627971398211
C            4.87225599977889       -2.76911119689732       -3.41607505715829
H            0.80722830019753        0.24834012065828       -1.40201930403314
H            2.27686922899325        0.79864905063151       -1.96448655418042
H            1.44161900041316        1.68637230416802       -0.81326319830087
H            1.72052390779307       -0.19249545574184        0.76496032883453
H            4.29501461788743        0.98392681407646       -0.41034980492095
H            4.12975888083703        0.25926772599435        1.17707548730327
H            3.26712509635235        1.74722261843689        0.81741433603540
H            1.69607478146709       -2.49736530408980        0.80675270394431
H            2.33011757518369       -4.68212020903467       -0.11131053516630
H            4.03445898626997       -0.54381878319761       -2.21059192622518
H            3.55858819377323       -6.01991014350512       -1.77638059626584
H            5.04887656376734       -6.12302773114905       -3.73387054881117
H            5.88469834151431       -4.05404212598756       -4.77213527742939
H            5.24086458223370       -1.86007652917878       -3.86897672479396
