  12
  -12.949987920000000       0.33352970220551742      !mtd5
 N         -1.5028499423       -0.0000222751        0.1568875438
 C         -0.1593824708        0.0000012079       -0.4953143329
 C          0.9869005155       -0.7555634704        0.1360652049
 C          0.9868745643        0.7555699577        0.1360994250
 H         -2.0422196498       -0.8332429466       -0.1176537556
 H         -2.0422730722        0.8330461047       -0.1180356446
 H         -1.4238772248        0.0004115523        1.1829839270
 H         -0.2181612527       -0.0000594366       -1.5928611392
 H          1.6924280671       -1.2794618212       -0.5126608606
 H          0.8026639479       -1.2802018988        1.0748025780
 H          1.6918669760        1.2800707715       -0.5127426228
 H          0.8026922190        1.2796555272        1.0751578171
  12
  -12.949987419999999       0.33335327917675872      !mtd6
 N         -1.5029290027        0.0000573678        0.1568525989
 C         -0.1593988138       -0.0000972909       -0.4952625434
 C          0.9869810055       -0.7555477619        0.1360001162
 C          0.9868495713        0.7555793601        0.1361201036
 H         -2.0419217231        0.8337651556       -0.1169496200
 H         -1.4238048935       -0.0010313572        1.1829151251
 H         -2.0426337671       -0.8327322650       -0.1184208440
 H         -0.2182255569        0.0002670965       -1.5927995105
 H          1.6926302137       -1.2794324072       -0.5126120592
 H          0.8026957072       -1.2801739682        1.0747399236
 H          1.6918762868        1.2798514987       -0.5128667150
 H          0.8031358475        1.2794718618        1.0753816874
  12
  -12.949986750000001       0.33311701861772375      !mtd3
 N         -1.5028645213       -0.0000069595        0.1568779997
 C         -0.1593698717       -0.0000373626       -0.4953184971
 C          0.9869115381       -0.7555721910        0.1360378539
 C          0.9868635273        0.7555769086        0.1360996722
 H         -1.4238539645       -0.0005878963        1.1829499462
 H         -2.0423995770       -0.8329556623       -0.1181830018
 H         -2.0419846928        0.8335684674       -0.1171746467
 H         -0.2181162424        0.0000893737       -1.5928646855
 H          1.6925674969       -1.2794482455       -0.5125700983
 H          0.8030191059       -1.2800055869        1.0749631143
 H          1.6919142845        1.2801352833       -0.5126350118
 H          0.8020262348        1.2796900090        1.0750099323
