  24
        -28.88959283
 N         -1.6499261997        1.5497254017       -0.7109951149
 C         -2.6438166834        0.6510926012       -0.0529591307
 C         -2.2768902444       -0.8293059994       -0.1536887381
 C         -1.1185035581       -1.2593761670        0.7616872147
 C          0.2120584687       -0.6617893135        0.4089661855
 C          0.8760968414       -1.0481359701       -0.7596869163
 C          2.0963849551       -0.4779184903       -1.1070664512
 C          2.6707104464        0.4889386351       -0.2904319698
 C          2.0267718998        0.8786363675        0.8777371450
 C          0.8092686244        0.3039991300        1.2276719823
 H         -0.7119836278        1.3938044607       -0.3177386321
 H         -1.8869679568        2.5461269930       -0.5861004368
 H         -1.5968454253        1.3668377329       -1.7242106166
 H         -3.6266375379        0.8309273148       -0.5079000935
 H         -2.7526406561        0.9332133617        1.0006202192
 H         -2.0262232367       -1.0643293178       -1.1930678203
 H         -3.1606541069       -1.4387512774        0.0747738030
 H         -1.0161868262       -2.3505822136        0.7494972049
 H         -1.3628621666       -1.0083740572        1.7987384203
 H          0.4387724232       -1.8041873318       -1.3890046815
 H          2.6019049598       -0.7922430501       -2.0058156401
 H          3.6205966074        0.9250385697       -0.5552732668
 H          2.4805456831        1.6145371337        1.5217333255
 H          0.3235983928        0.5954408979        2.1434802282
  24
        -28.88346047
 N         -2.9813220324        1.4876647170        0.4113816846
 C         -2.2822016690        0.7986713446       -0.7142860837
 C         -2.0900847075       -0.6962805889       -0.4744048250
 C         -1.0770000080       -1.0228587855        0.6310597353
 C          0.3219065175       -0.5784917300        0.3169302820
 C          1.0947166119       -1.2760158592       -0.6171611174
 C          2.3911491651       -0.8691976945       -0.9153899402
 C          2.9344320985        0.2433010036       -0.2838957830
 C          2.1784665155        0.9480892460        0.6451205420
 C          0.8814257878        0.5413614576        0.9414804277
 H         -3.9082531409        1.0702300056        0.5811719186
 H         -3.1282980338        2.4893493866        0.2130988637
 H         -2.4483593200        1.4233332413        1.2908522152
 H         -1.3105455168        1.2750532309       -0.8870217553
 H         -2.8583037731        0.9616324354       -1.6341312418
 H         -1.7690837568       -1.1817761327       -1.4032553592
 H         -3.0613864593       -1.1437483190       -0.2340362292
 H         -1.0629709315       -2.1017282065        0.8232403768
 H         -1.3971612411       -0.5711417370        1.5745052597
 H          0.6808547020       -2.1445641443       -1.1002429420
 H          2.9776619996       -1.4206016237       -1.6324166200
 H          3.9412564263        0.5556104542       -0.5104452957
 H          2.6007123925        1.8069418558        1.1411532227
 H          0.3032363687        1.0855979866        1.6680299378
  24
        -28.88335757
 N         -2.9970304445        0.3966405781       -1.5058068346
 C         -2.2917621467        1.0131762715       -0.3424260943
 C         -2.0924788856        0.0431490783        0.8189793758
 C         -1.0742326329       -1.0687449260        0.5325042849
 C          0.3258350678       -0.5663713911        0.3313363029
 C          0.8849550360       -0.4777852529       -0.9481247870
 C          2.1832931866       -0.0114583373       -1.1268950532
 C          2.9411065741        0.3779373412       -0.0287698819
 C          2.3979585334        0.3002543516        1.2480357963
 C          1.0998352591       -0.1675365711        1.4258227282
 H         -3.9232985745        0.0394814230       -1.2289200990
 H         -2.4675806053       -0.3940971234       -1.9009095061
 H         -3.1465518295        1.0777394968       -2.2661037166
 H         -2.8672614886        1.8865453347       -0.0093741288
 H         -1.3225718875        1.4063771649       -0.6688627001
 H         -3.0612387491       -0.3969974518        1.0816859831
 H         -1.7725218520        0.5940306626        1.7111105717
 H         -1.3839394350       -1.6401749198       -0.3473575725
 H         -1.0670854137       -1.7942432779        1.3539060222
 H          0.3050826042       -0.7855041758       -1.8009157396
 H          2.6051904979        0.0422901658       -2.1174337843
 H          3.9491634965        0.7347859340       -0.1666114224
 H          2.9856739541        0.5967628427        2.1017647016
 H          0.6860054749       -0.2368652918        2.4173798991
  24
        -28.88327575
 N         -3.0247523294        1.5131501829        0.2805517063
 C         -2.3472692585        0.3320634033        0.8946758417
 C         -2.0941049443       -0.7965436767       -0.1012023494
 C         -1.0142010255       -0.4755885223       -1.1433912283
 C          0.3580054590       -0.3104213921       -0.5578525191
 C          1.1036000210       -1.4296780171       -0.1733610716
 C          2.3758021701       -1.2860477497        0.3707073525
 C          2.9211774680       -0.0190809024        0.5407460108
 C          2.1913149275        1.1030445943        0.1672399862
 C          0.9185780292        0.9582570576       -0.3757690149
 H         -3.2135561315        2.2498470435        0.9774516306
 H         -3.9298046939        1.2453515522       -0.1338099222
 H         -2.4564478755        1.9360249617       -0.4676987908
 H         -2.9657155600       -0.0304747719        1.7259221289
 H         -1.4008792287        0.6476132240        1.3477153447
 H         -3.0367192917       -1.0413873590       -0.6039477173
 H         -1.8065696716       -1.7077914752        0.4361003859
 H         -1.2847368537        0.4300876036       -1.6939617087
 H         -0.9742012636       -1.2667652276       -1.9007074021
 H          0.6880750039       -2.4130103533       -0.3129132617
 H          2.9419342964       -2.1582737384        0.6551445187
 H          3.9095962054        0.0925835608        0.9568366963
 H          2.6153252441        2.0860958889        0.2928470516
 H          0.3604925211        1.8299559651       -0.6707434172
  24
        -28.88317046
 N         -3.0434670881        1.5140401983        0.2564752592
 C         -2.3549807328        0.3509984812        0.8927038363
 C         -2.0911976951       -0.7934257156       -0.0821832297
 C         -1.0142779700       -0.4823117347       -1.1305121790
 C          0.3603636905       -0.3149805643       -0.5512845985
 C          1.1208614381       -1.4343860081       -0.1974897867
 C          2.3961220185       -1.2891136080        0.3390707682
 C          2.9291338572       -0.0204632292        0.5334990228
 C          2.1837581319        1.1016694983        0.1919502711
 C          0.9082674573        0.9552861625       -0.3442443271
 H         -3.9441187524        1.2292364658       -0.1557750032
 H         -2.4780335608        1.9303994829       -0.4975401723
 H         -3.2425324528        2.2606981302        0.9399222706
 H         -2.9705706994       -0.0018895437        1.7302095234
 H         -1.4119313352        0.6836658408        1.3403279755
 H         -3.0317375345       -1.0554881031       -0.5801494531
 H         -1.7954866527       -1.6922417151        0.4713991312
 H         -1.2850077048        0.4192371511       -1.6876815095
 H         -0.9781994203       -1.2796743769       -1.8815244026
 H          0.7144599926       -2.4187525019       -0.3553077676
 H          2.9745429752       -2.1610770267        0.5984889586
 H          3.9198625062        0.0925217601        0.9438234138
 H          2.5978767357        2.0862228953        0.3368833808
 H          0.3380686435        1.8271809937       -0.6143829719
  24
        -28.88220505
 N         -3.3184906384        1.3782048107        0.9170964897
 C         -2.2243715003        0.9317967712        0.0031364672
 C         -2.0891157185       -0.5839954446       -0.0630512499
 C         -0.9373745454       -1.0531310677       -0.9632756576
 C          0.4135779388       -0.6070330305       -0.4856527762
 C          1.0527134197       -1.2751870029        0.5636702661
 C          2.2982071386       -0.8566446868        1.0203918332
 C          2.9216716903        0.2395744487        0.4361880676
 C          2.2965911205        0.9169992727       -0.6038731315
 C          1.0504248622        0.4985442393       -1.0592657080
 H         -3.3945981617        2.4061491841        0.9526761532
 H         -3.1604860351        1.0446150122        1.8794787850
 H         -4.2311005568        1.0109631031        0.6095259358
 H         -1.2760854687        1.3689101584        0.3342875780
 H         -2.4017543128        1.3343212626       -1.0008716451
 H         -3.0369918634       -1.0151744585       -0.4048023381
 H         -1.9425206650       -0.9752107466        0.9491738567
 H         -1.0964771466       -0.6894572929       -1.9833967180
 H         -0.9386425968       -2.1458142447       -1.0439210826
 H          0.5750893338       -2.1287024178        1.0135035945
 H          2.7833779155       -1.3861944494        1.8242946910
 H          3.8899238002        0.5603189566        0.7855461879
 H          2.7820181035        1.7628767773       -1.0630180794
 H          0.5747526494        1.0197734229       -1.8722642816
  24
        -28.88126560
 N         -3.8533543270       -0.2621083211       -0.8571015522
 C         -3.2345990078        0.7439617707        0.0573598395
 C         -1.7186475172        0.8430765108       -0.0914614625
 C         -0.9761897525       -0.4280963664        0.3282333731
 C          0.5160727265       -0.3015256188        0.2342641401
 C          1.1914199748       -0.6517623256       -0.9395620499
 C          2.5722217721       -0.5125881885       -1.0345321008
 C          3.2977234505       -0.0153893438        0.0417015579
 C          2.6396983839        0.3439501771        1.2119602340
 C          1.2587481231        0.2042503329        1.3061552502
 H         -4.8814153928       -0.2688777224       -0.7735293250
 H         -3.5257326111       -1.2175649143       -0.6528536284
 H         -3.6267547635       -0.0572211949       -1.8416212621
 H         -3.4905006196        0.4945886603        1.0937961853
 H         -3.6954081775        1.7215917232       -0.1329571572
 H         -1.3388262598        1.6873125252        0.4956633237
 H         -1.4693102931        1.0811758938       -1.1309146693
 H         -1.3020405742       -1.2700977371       -0.2888731291
 H         -1.2502632819       -0.6969396231        1.3533338846
 H          0.6322436572       -1.0358085092       -1.7753976794
 H          3.0807977535       -0.7913997214       -1.9432476226
 H          4.3681201489        0.0909954982       -0.0311394855
 H          3.2006007905        0.7297400140        2.0478027736
 H          0.7519962022        0.4832587474        2.2142106606
  24
        -28.88054339
 N         -4.2751791927       -0.2792043600        0.4049229554
 C         -3.2040898932        0.4924157834       -0.2952478585
 C         -1.8037619257        0.0090264985        0.0625602537
 C         -0.6888219772        0.7879787151       -0.6424186273
 C          0.6854122476        0.3038596703       -0.2847984303
 C          1.3030398049       -0.7078245197       -1.0275452309
 C          2.5699194124       -1.1693747290       -0.6851538294
 C          3.2351972838       -0.6303492590        0.4096856992
 C          2.6302105482        0.3687690505        1.1628079926
 C          1.3633003352        0.8300521671        0.8196240738
 H         -4.2302159089       -1.2805121770        0.1650294144
 H         -5.2168690802        0.0581063421        0.1530383004
 H         -4.1815944787       -0.2014809981        1.4284565588
 H         -3.3044268969        1.5564212677       -0.0505747621
 H         -3.3563400476        0.4233289053       -1.3786752636
 H         -1.7131214288       -1.0555638485       -0.1764302822
 H         -1.6628117312        0.0696378425        1.1466988513
 H         -0.7698380348        1.8529124449       -0.4021697854
 H         -0.8218976624        0.7275809252       -1.7273070419
 H          0.7908907175       -1.1263644858       -1.8769187128
 H          3.0379622577       -1.9437624614       -1.2710582276
 H          4.2185240209       -0.9854498508        0.6731748323
 H          3.1450325227        0.7887269990        2.0116702926
 H          0.8980105435        1.6055163219        1.4037685458
