25
 energy: -36.601234378774 gnorm: 0.000675882070 xtb: 6.5.1 (fef0646)
N            2.93084408609617       -3.34923686296438        2.11387832324479
C            2.56748131497297       -2.91922345064713        0.74623013563111
C            2.97643342521396       -1.46370996891934        0.50565433421372
C            4.45512148750405       -1.28749703780934        0.40902520945910
C            5.19633366871646       -0.93256060699743       -0.67704822977015
C            6.57968197005560       -0.86639750195256       -0.41865285969027
C            6.91134168580797       -1.17280711881148        0.87563966633464
C            8.19897394136826       -1.22694221667652        1.49293788676884
C            9.42451337866924       -0.95088155140156        0.94328391662112
C           10.48474099752462       -1.11505382546768        1.85579745022169
C           10.07100519423450       -1.51151402871569        3.08811976537514
S            8.37033688949722       -1.69466205316671        3.16371016616122
S            5.49127466479880       -1.52964003268254        1.79334698823569
H            2.67923517699263       -4.33114111626003        2.26863431514534
H            2.45501988586081       -2.76662303965060        2.81230599123445
H            3.94524236043686       -3.23587429649318        2.25597741279162
H            1.48989548093198       -3.01008122216488        0.61587268668983
H            3.06607474174966       -3.56255567615164        0.02202148948656
H            2.58681289503834       -0.83521503673507        1.30738277331964
H            2.53474577836102       -1.12468608211135       -0.43036556901838
H            4.77528781847021       -0.72005879631709       -1.64320718413975
H            7.31225709301290       -0.60250543572849       -1.15955345614494
H            9.56354568989251       -0.64012945044623       -0.07582879459119
H           11.51629539337310       -0.94279905506319        1.60568796596385
H           10.65860498142080       -1.70866453666591        3.96216961645689
