25
 energy: -36.495170961760 gnorm: 0.000943226647 xtb: 6.5.1 (fef0646)
N            3.21430306408750       -0.19369491880190       -1.21127625230590
C            2.66166255365071        1.07862835756120       -0.66945305545121
C            3.05003508880916        1.21135358465753        0.80611273476313
C            4.53066371918738        1.31410186778470        0.97030492426398
C            5.28996000622585        2.40959113328562        1.23372632316067
C            6.67501061649964        2.14834304676009        1.24564622712089
C            6.99872495140930        0.84588883054369        0.97676265611302
C            8.28236269674817        0.23094124469871        0.88328440369789
C            9.50537910453260        0.77750024130099        1.19074234699378
C           10.56940909295469       -0.11298192127375        0.96939035448260
C           10.16119340272165       -1.32118792794265        0.49539111171116
S            8.46210440437682       -1.40735158659824        0.31334560309053
S            5.55094233868552       -0.10103940443958        0.75109924227337
H            3.15148280544225       -0.24179448993163       -2.23270626486285
H            2.72438999750088       -0.99992811262140       -0.80682914093810
H            4.21998034226961       -0.25520700323284       -0.90128809080582
H            1.57776368548193        1.08399687993688       -0.78623113679104
H            3.08596445503075        1.90744477142332       -1.23770729580204
H            2.66078445018361        0.35898518542671        1.36712382221102
H            2.58703422122914        2.11334681370101        1.20551495898605
H            4.87741099843030        3.38504923049944        1.41808120916148
H            7.41475323834206        2.90218606292456        1.43897934942661
H            9.63143781734553        1.77442096706489        1.57045342490546
H           11.59896111525133        0.13203160598477        1.15526029312114
H           10.75740583360381       -2.17522445871247        0.24264225147521
