  40
        -67.12405646
 N         -7.1612247707        0.2559486732       -0.9661224868
 C         -7.2984540974       -0.1800066193        0.4123271177
 C         -6.6209612908       -1.5248569759        0.6789469881
 C         -5.1697604338       -1.4947819006        0.3593137630
 C         -4.5731824227       -2.1206853549       -0.6874572396
 C         -3.1740180259       -1.9005031008       -0.7654697938
 C         -2.6845694075       -1.1003725243        0.2268770177
 C         -1.3082204726       -0.7132349495        0.3879018615
 C         -0.8161671637        0.0839214942        1.3858730860
 C          0.5750563954        0.3065248294        1.3093856959
 C          1.1807013144       -0.3152095342        0.2500622407
 C          2.5806443051       -0.2581719118       -0.0643052493
 C          3.1842204987       -0.8764084574       -1.1268951969
 C          4.5758562256       -0.6567116254       -1.2034126339
 C          5.0705045474        0.1341531247       -0.2017073651
 C          6.4486118497        0.5154966812       -0.0398256388
 C          6.9440717431        1.3029924781        0.9608671099
 C          8.3444202874        1.5195725123        0.8780532362
 C          8.9215098430        0.9032225358       -0.1785431380
 S          7.7494551711        0.0357252743       -1.1034325100
 S          3.7738189525        0.6171020038        0.8607975322
 S         -0.0097988030       -1.1969751694       -0.6720251321
 S         -3.9878528998       -0.6125055688        1.2807620896
 Cl        -8.7219190550        3.1982302712       -0.8298635839
 H         -8.0947975151        2.0202969559       -0.8903520421
 H         -7.5572235126       -0.4457622115       -1.5819851587
 H         -6.1756779907        0.3001190142       -1.2013443369
 H         -8.3639161769       -0.2196264830        0.6707238731
 H         -6.8668585401        0.5889758410        1.0642997195
 H         -7.1052661756       -2.3064039263        0.0835711521
 H         -6.7506081862       -1.8213354244        1.7259608866
 H         -5.1178795673       -2.7236759935       -1.3972417171
 H         -2.5466195153       -2.3220467282       -1.5347753371
 H         -1.4437263107        0.4999632746        2.1580955907
 H          1.1209359156        0.9102573209        2.0168153791
 H          2.6364640018       -1.4757631971       -1.8366547298
 H          5.2016987192       -1.0705433492       -1.9780706423
 H          6.3211336343        1.7172202597        1.7377825498
 H          8.8918983781        2.1184408303        1.5906343477
 H          9.9656538678        0.9371891838       -0.4252492359
