40
 energy: -67.136664520709 gnorm: 0.000111876387 xtb: 6.5.1 (fef0646)
N            3.68320234051329        0.56909832462191        1.40620331118644
C            2.91559585598023        1.20954373178854        0.34920933751155
C            3.70730541984154        2.25070498752317       -0.46925216874642
C            4.79992309161293        1.62303007216759       -1.26236234462064
C            4.77507592696553        1.22205021171469       -2.56427728728150
C            5.97498646590312        0.62799444321905       -2.99292679556926
C            6.93115973756858        0.56486886884517       -2.01275758156325
C            8.25358098194737        0.04332723590446       -2.09056425031284
C            9.20838792741069       -0.01527790226593       -1.10319516305512
C           10.41296815668717       -0.58195013350876       -1.52785237722844
C           10.40125284251946       -0.96729151254085       -2.84815974169427
C           11.44798078143165       -1.56391189987306       -3.60261607903959
C           11.43550124805792       -1.94996193971360       -4.92276860697489
C           12.64607847427782       -2.49970391030003       -5.35258618250905
C           13.60665521024941       -2.54417661536171       -4.37016368309970
C           14.94216871180028       -3.03179922658625       -4.46226301997396
C           15.90281476768157       -3.07665096390031       -3.48373362673510
C           17.11995003754915       -3.62217034436058       -3.92968690212724
C           17.08358959024022       -3.98913656812011       -5.23776738703424
S           15.55625217191738       -3.67658049310136       -5.96015386809335
S           12.99746274763098       -1.89131635449663       -2.87513896198306
S            8.85933045449582       -0.62192715907035       -3.58239286444776
S            6.33341589578490        1.25524710617341       -0.52902260571205
Cl           1.93072321593857       -1.27525790507263        2.88217156238127
H            2.75189054265360       -0.43076009886933        2.19924860096501
H            4.03842557166395        1.25705131524137        2.06260357965707
H            4.47317659789260        0.05869580212363        1.02340115371949
H            2.05705962272164        1.69969078772128        0.81283432636918
H            2.54715374171550        0.42660581435736       -0.31690463261588
H            4.12252541398476        2.99590317981744        0.21415556467940
H            3.01872550110459        2.75321923131581       -1.15031375479866
H            3.92000442322696        1.35797805600124       -3.20232981985511
H            6.14370890214440        0.25822241821531       -3.98855552311490
H            9.03216620466990        0.34554476432090       -0.10490531262802
H           11.27494893212237       -0.71026195905459       -0.89743530902901
H           10.56952266180337       -1.83248101935659       -5.55012075080501
H           12.82529926981871       -2.85705303658499       -6.35121552536686
H           15.72777592551223       -2.72617341123160       -2.48205021082237
H           17.98688665780260       -3.73699821816724       -3.30410628258829
H           17.86190797717964       -4.42689567949716       -5.83029881704370
