17
 energy: -17.279293772476 gnorm: 0.000398910923 xtb: 6.5.1 (fef0646)
N            0.93244663308984       -0.05854535606113        0.08836028216966
C            2.41588118489673       -0.04358566132801        0.08915039849113
C            2.93980530792583        1.37331976786429       -0.11516157750933
C            4.46827599025939        1.39847991639211       -0.12074810120693
C            4.99894423596666        2.81375283790303       -0.32143049902118
H            0.57721630385608       -1.01105426512467        0.22881612526973
H            0.57658618912137        0.29864223103887       -0.80632251753282
H            0.57410032965878        0.54237677144051        0.83997972622959
H            2.78095155115918       -0.68886435775104       -0.70974333006547
H            2.77727845969692       -0.43456401169862        1.04014778301120
H            2.58750965659553        2.02592947646527        0.68483287501698
H            2.58541609937308        1.77487720095959       -1.06545144373668
H            4.84586548334995        0.75940067667147       -0.92102416229100
H            4.84831437378880        1.00612889012260        0.82425134873661
H            4.65760508263293        3.22445439327024       -1.26920942237788
H            6.08625958693682        2.81829640157194       -0.32443529081644
H            4.66145353169212        3.47055508826354        0.47744780563280
