  21
        -29.76794319
 N         -3.3310880057       -0.9922744441       -1.0289720215
 C         -3.3927756449        0.3549522080       -0.3918099706
 C         -2.5153626991        0.4627588808        0.8551637109
 C         -1.0519296558        0.3001276332        0.5678864283
 C         -0.3204142217        1.3533095836        0.0099556404
 C          1.0146342495        1.2173875474       -0.2656831037
 C          1.6643233469        0.0020976554        0.0120134019
 Cl         3.3100559270       -0.1751772245       -0.3172443234
 C          0.9363461908       -1.0625957434        0.5702377439
 C         -0.3985464569       -0.9072542442        0.8386439895
 H         -3.9205780437       -1.0425686056       -1.8735801200
 H         -3.6575611664       -1.7245851100       -0.3815434218
 H         -2.3656953354       -1.2290386694       -1.3090875381
 H         -4.4370848063        0.5836849763       -0.1438467979
 H         -3.0882882344        1.1120488071       -1.1237671814
 H         -2.8257223449       -0.2913736991        1.5851637154
 H         -2.6727084603        1.4271732834        1.3506870184
 H         -0.8168634692        2.2869201160       -0.1949577695
 H          1.5813285725        2.0312106740       -0.6882851358
 H          1.4441533000       -1.9883938398        0.7872907696
 H         -0.9539106041       -1.7199765043        1.2762908221
  21
        -29.76460700
 N         -4.6959422212       -0.0385606796        0.0166726418
 C         -3.2459243841        0.1003027597        0.3461536240
 C         -2.3338240505       -0.3201871688       -0.8027470624
 C         -0.8735546726       -0.1872818732       -0.4817890884
 C         -0.2013825614        1.0166516409       -0.7156307170
 C          1.1272483958        1.1535682678       -0.4105682111
 C          1.8293868353        0.0729224600        0.1509012377
 Cl         3.4667733261        0.2294143288        0.5291759337
 C          1.1597698330       -1.1380822497        0.3962151015
 C         -0.1695053468       -1.2556292880        0.0843426717
 H         -4.9500662175        0.5400355577       -0.7969597608
 H         -5.2966863211        0.2513621852        0.8029973819
 H         -4.9349064910       -1.0169111684       -0.2122994269
 H         -3.0166983197       -0.4958095260        1.2369888969
 H         -3.0340232954        1.1391314692        0.6248095539
 H         -2.5647968626        0.2731722642       -1.6930248593
 H         -2.5505802134       -1.3549957227       -1.0849647101
 H         -0.7397884414        1.8437049663       -1.1469907771
 H          1.6485673526        2.0787545137       -0.5956145237
 H          1.7057233672       -1.9619321565        0.8265868440
 H         -0.6834959804       -2.1838601598        0.2712629347
  21
        -29.76192780
 N         -3.9132444073        0.3997641194       -1.2909102984
 C         -3.3915082928        0.4954458095        0.1061071003
 C         -2.4677846627       -0.6736342123        0.4891313696
 C         -0.9955058970       -0.3995024147        0.3459820410
 C         -0.4862915140        0.3395387014       -0.7260448608
 C          0.8588211528        0.5587012050       -0.8640331527
 C          1.7525575177        0.0279635062        0.0816896912
 Cl         3.4121828599        0.2912291191       -0.0756206431
 C          1.2546283270       -0.7257817115        1.1577486507
 C         -0.0949418672       -0.9322304051        1.2768798686
 H         -4.4971022403        1.2136067910       -1.5357389158
 H         -4.4989600464       -0.4401310767       -1.4070754882
 H         -3.1560494533        0.3401766032       -1.9894538007
 H         -4.2523874613        0.5403651207        0.7864115465
 H         -2.8656228821        1.4472598207        0.2461361733
 H         -2.7243463448       -1.5509039134       -0.1130785394
 H         -2.6613895510       -0.9708348206        1.5259089711
 H         -1.1641789066        0.7470828191       -1.4534283197
 H          1.2486349350        1.1317111582       -1.6896347287
 H          1.9460068049       -1.1353002734        1.8763670623
 H         -0.4730326545       -1.5174198638        2.0989589653
  21
        -29.76170049
 N         -4.7263307374       -0.4414924873       -0.2497388924
 C         -3.2657725191       -0.7353359571       -0.1394613304
 C         -2.4065670221        0.5267789720       -0.1841762158
 C         -0.9182075164        0.3236873474       -0.0801445202
 C         -0.0827945577        1.4456841180       -0.1243770368
 C          1.2786832573        1.3244774544       -0.0334514207
 C          1.8569078171        0.0517216412        0.1072242483
 Cl         3.5327768242       -0.1131181827        0.2209667750
 C          1.0295630692       -1.0827015334        0.1527590238
 C         -0.3305442064       -0.9398335488        0.0601843758
 H         -4.9435900712        0.0405816537       -1.1339468309
 H         -5.0432490279        0.1658733902        0.5199263316
 H         -5.2949708836       -1.3040677875       -0.2185983677
 H         -2.9747280593       -1.4125590798       -0.9504685748
 H         -3.0799320884       -1.2794637987        0.7936354457
 H         -2.7222060355        1.1989112513        0.6201372026
 H         -2.6191336134        1.0670541359       -1.1119119731
 H         -0.5249144490        2.4221745189       -0.2319456666
 H          1.9187267261        2.1912479470       -0.0676860559
 H          1.4809185234       -2.0557361483        0.2601122950
 H         -0.9525850982       -1.8173968088        0.0960543139
