22
 energy: -51.846665764821 gnorm: 0.000225330104 xtb: 6.5.1 (fef0646)
N            1.16968171544981       -0.31495237722873        0.02933046131203
C            2.64230007720455       -0.30501571467060        0.02304986743851
C            3.12315770558208        0.87561281791281        0.87525141373564
C            4.59796323683426        1.10711932352108        0.76421625128857
C            5.17303415137734        1.60234876451349       -0.40503746349579
F            4.39357518235901        1.85430304415502       -1.46386201350769
C            6.53586962757737        1.84838940166716       -0.51432265688328
F            7.04834835352684        2.33232645824727       -1.65546556293634
C            7.37266229570412        1.59522691364242        0.56647789329792
F            8.68782555365238        1.83229741721274        0.47336345919022
C            6.83092430261617        1.09598891459791        1.74390540537434
F            7.62580930920333        0.84580437017804        2.79418687100255
C            5.46363688573713        0.85836713239840        1.82624375967343
F            4.96926811626429        0.37535873993495        2.97460877661344
Cl           0.35159497794550        2.51611229979317       -0.74095102854292
H            0.79545493767481       -1.02166164925044       -0.60756948862795
H            0.81885615837177        0.62965366239820       -0.28341804931522
H            0.80487663378513       -0.47061559596439        0.97234424321170
H            2.98430124799626       -0.17533036311556       -1.00304846891122
H            3.02531241488327       -1.24511597115157        0.42141622654770
H            2.86745989770265        0.71460058685197        1.92102400013988
H            2.59826721855125        1.76521182435759        0.51527610339367
