  25
        -37.12629465
 N          2.5164523437       -0.0575687975        0.9059021206
 C          1.8670014083       -0.1622506640       -0.3931551984
 C          0.3855020623       -0.3496984248       -0.2887559935
 C         -0.1570818438       -1.6433806720       -0.1764999569
 C         -1.4991444219       -1.8330350105       -0.0420448539
 C         -0.4495563802        0.7320839597       -0.2445698594
 C         -1.8472409693        0.5746163848       -0.1090208123
 C         -2.3823358226       -0.7310350143       -0.0070429933
 C         -3.7803773657       -0.8886373364        0.1294582606
 C         -4.6010862408        0.1983151626        0.1620374022
 C         -4.0710602855        1.4917288776        0.0612081808
 C         -2.7281442119        1.6793402437       -0.0707195565
 Cl         5.6775898327        0.3568034925       -0.0607984959
 H          2.3101311530       -0.8904702388        1.4463064442
 H          2.0998416002        0.7084509679        1.4244308257
 H          4.4108368924        0.1906348573        0.3333108519
 H          2.3101740580       -0.9945549362       -0.9534817909
 H          2.0893767711        0.7352219864       -0.9816191453
 H          0.5097869081       -2.4890820949       -0.1956591492
 H         -1.9030987505       -2.8277484124        0.0411206313
 H         -0.0384243945        1.7238564517       -0.3110342330
 H         -4.1879572011       -1.8823477683        0.2075799027
 H         -5.6659278716        0.0662323625        0.2661630638
 H         -4.7334872739        2.3418071245        0.0884577399
 H         -2.3214004791        2.6733683457       -0.1483665223
  25
        -37.12551564
 N          2.4387601054        0.9065953069        0.0466261430
 C          1.8856105706       -0.4413107800        0.0113051606
 C          0.3871964265       -0.5189310389       -0.0200108350
 C         -0.2310140006       -1.7784969929       -0.1462114758
 C         -1.5872034659       -1.9016450660       -0.1746393206
 C         -0.3996340952        0.5951976303        0.0777144022
 C         -1.8096495514        0.5088702286        0.0521473771
 C         -2.4158341692       -0.7622248766       -0.0766760399
 C         -3.8264622732       -0.8479807789       -0.1025637084
 C         -4.5911322368        0.2753927758       -0.0048847375
 C         -3.9900911068        1.5350208272        0.1230229616
 C         -2.6331226716        1.6530990539        0.1512708302
 Cl         5.6925936838        0.1890417772        0.0165461015
 H          2.1095453267        1.3910210028        0.8743157742
 H          2.0996309451        1.4362969999       -0.7493355846
 H          4.3886331280        0.4832544146        0.0288669352
 H          2.2577412757       -0.9983279636        0.8799791035
 H          2.2907770692       -0.9620294488       -0.8640164463
 H          0.3919258022       -2.6542756978       -0.2204411103
 H         -2.0442812723       -2.8717752760       -0.2720335270
 H          0.0512291369        1.5651758777        0.1755270558
 H         -4.2885181063       -1.8157232265       -0.2007952904
 H         -5.6662243763        0.1985171276       -0.0257544662
 H         -4.6088578458        2.4144963084        0.1993609853
 H         -2.1717404357        2.6211034832        0.2495543438
  25
        -37.12469654
 N          3.0533042933        1.1911341283       -0.5474988936
 C          2.2380586786        0.5478821612       -1.5718794747
 C          0.8800227731        0.1717502259       -1.0654242614
 C          0.6222291026       -1.1398093878       -0.6236319140
 C         -0.5958328552       -1.4858718613       -0.1223155945
 C         -0.1074283149        1.1128198242       -0.9762674761
 C         -1.3844912668        0.7905553266       -0.4645493360
 C         -1.6340582925       -0.5324887421       -0.0303256545
 C         -2.9107729689       -0.8544749315        0.4836944929
 C         -3.8868092992        0.0929357801        0.5601742725
 C         -3.6395342959        1.4037227673        0.1303642669
 C         -2.4199591653        1.7479607635       -0.3698014612
 Cl         3.1260108085       -1.2339945869        1.7359369120
 H          2.5789435329        2.0214418419       -0.2084050603
 H          3.9372469242        1.5050548924       -0.9355018786
 H          3.0913713270       -0.2588154220        0.8224537196
 H          2.7558847364       -0.3509166764       -1.9278686701
 H          2.1327929691        1.2009541862       -2.4467976862
 H          1.4104231955       -1.8717624734       -0.6799269718
 H         -0.7801100341       -2.4918886787        0.2145559375
 H          0.0892663951        2.1205526125       -1.2969083857
 H         -3.1006676085       -1.8612996936        0.8152385459
 H         -4.8569147300       -0.1638201712        0.9540583411
 H         -4.4219008841        2.1423189752        0.1979166083
 H         -2.2301678031        2.7554410282       -0.6992335124
  25
        -37.12469544
 N          3.0166305598        1.2702970513       -0.3030275340
 C          2.1940461693        0.7812954259       -1.4039523387
 C          0.8366809620        0.3401304102       -0.9505196873
 C          0.6189621479       -0.9920529589       -0.5518607179
 C         -0.6000489593       -1.4016005170       -0.1035088376
 C         -0.1911160476        1.2380776318       -0.8687615536
 C         -1.4706252122        0.8495561172       -0.4120259711
 C         -1.6799858602       -0.4945984428       -0.0237967188
 C         -2.9599423499       -0.8834514565        0.4327535056
 C         -3.9772047831        0.0204038211        0.4983339814
 C         -3.7696955413        1.3521648464        0.1144264935
 C         -2.5482256142        1.7605204542       -0.3297620606
 Cl         3.3959979579       -1.5312174564        1.4584816637
 H          2.5281454411        2.0192408516        0.1759410474
 H          3.8829201348        1.6698597169       -0.6505069608
 H          3.2400987684       -0.4024764440        0.7592857488
 H          2.7070024436       -0.0589995435       -1.8872040231
 H          2.0875938656        1.5526779452       -2.1764328734
 H          1.4391007201       -1.6885960784       -0.5975000131
 H         -0.7533084808       -2.4232956374        0.2000894517
 H         -0.0259724689        2.2618637686       -1.1545031361
 H         -3.1193909147       -1.9065343354        0.7286591476
 H         -4.9494176156       -0.2875040632        0.8478507050
 H         -4.5844914540        2.0556763977        0.1724219814
 H         -2.3892534470        2.7840015952       -0.6243342199
  25
        -37.12469374
 N          3.0294589845        1.1331589880        0.7180764147
 C          2.1900616965        0.3926776238        1.6534052356
 C          0.8445330249        0.0719554646        1.0798392533
 C          0.6116620303       -1.1716429033        0.4627249134
 C         -0.5938088032       -1.4620112489       -0.1005581270
 C         -0.1543746029        1.0050142247        1.1001427369
 C         -1.4192132301        0.7387354496        0.5292439583
 C         -1.6437962604       -0.5172973295       -0.0816852988
 C         -2.9080503949       -0.7827961812       -0.6553392354
 C         -3.8960487659        0.1546188458       -0.6208106452
 C         -3.6736726330        1.3989126613       -0.0155606454
 C         -2.4665919546        1.6876967950        0.5462187818
 Cl         3.2345628840       -1.0823605727       -1.7633056650
 H          3.8995495616        1.4134601548        1.1593603899
 H          2.5583832995        1.9892941559        0.4450129693
 H          3.1474559132       -0.1907574393       -0.7712065622
 H          2.0638157147        0.9560438245        2.5870461685
 H          2.6988316823       -0.5375499498        1.9301985344
 H          1.4092063696       -1.8949837510        0.4337469509
 H         -0.7588722096       -2.4160040143       -0.5718979038
 H          0.0236536856        1.9634728289        1.5547738655
 H         -3.0787954410       -1.7383833057       -1.1215836586
 H         -4.8564463595       -0.0586608684       -1.0616285560
 H         -4.4653570612        2.1303895627        0.0034932913
 H         -2.2960338171        2.6440975605        1.0107298186
  25
        -37.12449131
 N          2.7305760410       -1.0187101590       -0.0038178790
 C          1.8507761682        0.1419570565        0.0487046977
 C          0.3809193617       -0.1625328251        0.0453935374
 C         -0.1057765791       -1.4806382280        0.1370743475
 C         -1.4427486351       -1.7427949755        0.1415809367
 C         -0.5162197363        0.8676758437       -0.0368736087
 C         -1.9101726934        0.6366478111       -0.0355286839
 C         -2.3832038872       -0.6929546211        0.0552503851
 C         -3.7774806616       -0.9252084743        0.0572912453
 C         -4.6536932852        0.1146328000       -0.0267483544
 C         -4.1852536809        1.4324150070       -0.1165943879
 C         -2.8476510970        1.6910546622       -0.1211315452
 Cl         5.6955394198        0.5003640984       -0.0525338863
 H          2.5047557611       -1.5780475255       -0.8188388455
 H          2.5689470823       -1.6114429484        0.8034274461
 H          4.5088543633       -0.1148323142       -0.0331476981
 H          2.0841980247        0.7939951698       -0.8021338963
 H          2.0950753277        0.7297053154        0.9410491055
 H          0.5939272959       -2.2950715815        0.2036967923
 H         -1.7990096922       -2.7565991695        0.2115899289
 H         -0.1554035185        1.8790256831       -0.1032321988
 H         -4.1374988274       -1.9377629474        0.1265827672
 H         -5.7151225490       -0.0738684133       -0.0242348279
 H         -4.8910320600        2.2446548543       -0.1823513900
 H         -2.4882956538        2.7038015040       -0.1901477149
  25
        -37.12355907
 N          3.0148557123        1.1641786976       -0.5468580878
 C          2.1461089919        1.3076967788        0.6177163522
 C          0.7833164199        0.7204825910        0.4049683890
 C          0.6344086713       -0.6656664331        0.2163746156
 C         -0.5914323238       -1.2223923318        0.0144382854
 C         -0.3263020596        1.5200710516        0.3718278442
 C         -1.6152263296        0.9793226186        0.1643996376
 C         -1.7513293206       -0.4171756482       -0.0153304164
 C         -3.0406537274       -0.9582801437       -0.2221983082
 C         -4.1363439807       -0.1490639358       -0.2485210305
 C         -4.0017207168        1.2345429197       -0.0710274015
 C         -2.7735681788        1.7886768883        0.1305794163
 Cl         3.7979153778       -2.0552700336       -0.2507337191
 H          3.8535799237        1.7271847643       -0.4425453349
 H          2.5348292734        1.5174053478       -1.3672150481
 H          3.5133261283       -0.7557083967       -0.3861211492
 H          2.0504870554        2.3659797320        0.8930202255
 H          2.6181753077        0.8165814009        1.4761386551
 H          1.5133520749       -1.2871298944        0.2191223602
 H         -0.6899552570       -2.2849538285       -0.1298785602
 H         -0.2219844168        2.5822831942        0.5053577517
 H         -3.1442175105       -2.0213922640       -0.3590980324
 H         -5.1149675102       -0.5725451107       -0.4070672504
 H         -4.8781853570        1.8617802314       -0.0948328836
 H         -2.6707752363        2.8518781699        0.2669615292
  25
        -37.12328675
 N          3.0961193504       -0.9611920280        0.7217526531
 C          2.3447451484       -1.5074922458       -0.4045372778
 C          0.8661011893       -1.2956953871       -0.2789904487
 C         -0.0112765580       -2.3951430032       -0.2068517503
 C         -1.3563511937       -2.2151686543       -0.0884200546
 C          0.3522441712       -0.0307671771       -0.2219531199
 C         -1.0357979128        0.1957164614       -0.1002520629
 C         -1.9075719007       -0.9157218302       -0.0331666823
 C         -3.2972037254       -0.6876152891        0.0888609186
 C         -3.7895635339        0.5817310590        0.1418935769
 C         -2.9248490774        1.6828409610        0.0766767749
 C         -1.5803078426        1.4983839962       -0.0413513606
 Cl         2.9180096122        2.2919939227        0.0584866674
 H          4.0630116184       -1.2701858547        0.6931581142
 H          2.7077602015       -1.3201911208        1.5869681800
 H          3.0264133141        0.9894764545        0.3415276805
 H          2.5534324958       -2.5792570965       -0.5164802221
 H          2.6964250068       -1.0350764150       -1.3286932590
 H          0.3976621908       -3.3908361641       -0.2462830990
 H         -2.0168958343       -3.0639451141       -0.0351564654
 H          1.0137492399        0.8155139552       -0.2591983092
 H         -3.9620588703       -1.5332266143        0.1396645539
 H         -4.8512374446        0.7439835367        0.2351239428
 H         -3.3296387285        2.6810217378        0.1206803038
 H         -0.9144548350        2.3432360323       -0.0904282567
  25
        -37.12010977
 N          3.5547385356       -0.2936037145        1.1597395662
 C          2.4705575308       -0.7016713171        2.0379469093
 C          1.1406233486       -0.7053040972        1.3510370273
 C          0.7147021583       -1.8436503614        0.6417742541
 C         -0.4643280704       -1.8459589096       -0.0399681352
 C          0.3607241928        0.4177259326        1.3448165672
 C         -0.8680983144        0.4529526359        0.6486118322
 C         -1.2879015306       -0.6985210333       -0.0577229824
 C         -2.5104742160       -0.6586346563       -0.7658916975
 C         -3.2728453307        0.4704146526       -0.7703065795
 C         -2.8564994542        1.6114141109       -0.0712332047
 C         -1.6839749404        1.6067613284        0.6223105653
 Cl         1.3334631324        0.8100747678       -2.2918047198
 H          3.3604588556        0.6221866032        0.7720044678
 H          3.6178215683       -0.9263263228        0.3711172812
 H          0.6085352095        0.4067447927       -1.2677290240
 H          2.4412529952       -0.0343678397        2.9078455620
 H          2.6867286781       -1.6972697194        2.4416924561
 H          1.3421938837       -2.7192183887        0.6408372742
 H         -0.7805429051       -2.7232887874       -0.5785563379
 H          0.6903775158        1.2968173740        1.8701392046
 H         -2.8301409300       -1.5347751437       -1.3043470288
 H         -4.2032159582        0.4898722135       -1.3145489155
 H         -3.4706341097        2.4973245989       -0.0847584387
 H         -1.3638334167        2.4841600957        1.1583471089
  25
        -37.12001407
 N          3.5701591228       -0.0888655684       -1.0971371034
 C          2.5307310183       -0.5440384422       -2.0056277909
 C          1.1815074071       -0.5997263691       -1.3598582037
 C          0.7371587186       -1.7864781398       -0.7474905061
 C         -0.4629118200       -1.8387710022       -0.1056410869
 C          0.3984672114        0.5191699216       -1.2974857787
 C         -0.8515025945        0.5034791090       -0.6392682594
 C         -1.2901757700       -0.6962727383       -0.0316809792
 C         -2.5349648324       -0.7085722977        0.6377499145
 C         -3.3006689311        0.4165697197        0.6988473302
 C         -2.8656805901        1.6053419695        0.0975718656
 C         -1.6714554345        1.6516953470       -0.5562803754
 Cl         1.2802729751        0.5694970688        2.3946995060
 H          3.6187669989       -0.7007207207       -0.2908746957
 H          3.3397537193        0.8309710519       -0.7407143841
 H          0.5924777897        0.2479245274        1.3175630163
 H          2.8009312266       -1.5323543682       -2.3967898845
 H          2.5001455034        0.1166427918       -2.8794337066
 H          1.3668617745       -2.6594631823       -0.7890962541
 H         -0.7934069178       -2.7528703983        0.3580497187
 H          0.7415841547        1.4335694415       -1.7486563858
 H         -2.8690124612       -1.6215177262        1.1010830012
 H         -4.2481278126        0.3959417630        1.2127169385
 H         -3.4827852800        2.4874234554        0.1549425491
 H         -1.3371001089        2.5656672537       -1.0172580925
  25
        -37.11945365
 N          2.8788526327       -0.8862985251       -3.0802822143
 C          2.8889182047       -0.5764985538       -1.6603503270
 C          1.5219757485       -0.5994033919       -1.0502635431
 C          1.0244280605       -1.7809520810       -0.4695080276
 C         -0.2301723301       -1.8299715378        0.0582974835
 C          0.7234772356        0.5091846008       -1.0998193716
 C         -0.5820117290        0.4973556678       -0.5595749011
 C         -1.0672927407       -0.6924751142        0.0320836987
 C         -2.3685625330       -0.7008103315        0.5837133565
 C         -3.1438380959        0.4188386932        0.5484257418
 C         -2.6633858157        1.5973204451       -0.0382652940
 C         -1.4145303034        1.6392763327       -0.5808752483
 Cl         0.5857674141        0.9360738865        2.8885280408
 H          2.2908297080       -0.2254901971       -3.5739551277
 H          2.4702936292       -1.8012047847       -3.2325701774
 H          0.0859445434        0.5564551079        1.7292865506
 H          3.3494016709        0.4073661801       -1.5087974866
 H          3.5428932965       -1.2863448928       -1.1413430460
 H          1.6538242211       -2.6548995120       -0.4504115280
 H         -0.5991879451       -2.7389432331        0.5025060748
 H          1.0922829446        1.4093277302       -1.5591092803
 H         -2.7383227884       -1.6063445667        1.0343978267
 H         -4.1344544108        0.4015369983        0.9733487926
 H         -3.2891481207        2.4749261225       -0.0587263859
 H         -1.0456036819        2.5453223515       -1.0310872237
  25
        -37.11911469
 N          3.4580892724       -0.6630691707        0.7311960187
 C          2.4559435196       -0.5982148379        1.7872093466
 C          1.0603594113       -0.6542112718        1.2467215259
 C          0.5857420853       -1.8369211740        0.6505783774
 C         -0.6283980867       -1.8750878413        0.0345309768
 C          0.2802057707        0.4697822256        1.2174292297
 C         -0.9800826217        0.4706020647        0.5791855697
 C         -1.4412762346       -0.7214688601       -0.0266223594
 C         -2.6972562393       -0.7172939259       -0.6749792520
 C         -3.4511315709        0.4166155755       -0.7194324721
 C         -2.9927402932        1.5983109317       -0.1215700551
 C         -1.7876005059        1.6286699498        0.5129453796
 Cl         1.8517612955        0.9470687927       -1.9357843184
 H          3.1504082635       -0.0810295316       -0.0416152425
 H          3.5151564805       -1.6028579407        0.3556650147
 H          0.9029172348        0.6513765749       -1.0670397361
 H          2.6003143913        0.3313184155        2.3509331001
 H          2.6173437705       -1.4076197369        2.5081623379
 H          1.2082791554       -2.7156154984        0.6750912940
 H         -0.9790114149       -2.7848912267       -0.4225764300
 H          0.6424312165        1.3821677488        1.6580996749
 H         -3.0496269934       -1.6249353832       -1.1351220668
 H         -4.4073583089        0.4083350940       -1.2171631653
 H         -3.6006663714        2.4875008805       -0.1657166938
 H         -1.4359215794        2.5369613879        0.9723772589
  25
        -37.11885129
 N          3.0701357498       -0.7092742711       -2.8683206905
 C          2.9950791960       -0.4655988354       -1.4373676458
 C          1.5954927539       -0.5263388987       -0.9095173583
 C          1.0761554830       -1.7370510324       -0.4144291556
 C         -0.2058468766       -1.8181257293        0.0380370977
 C          0.7912899050        0.5783089182       -0.9520216012
 C         -0.5422713402        0.5328408668       -0.4884709334
 C         -1.0498039810       -0.6859124991        0.0171862080
 C         -2.3833030677       -0.7309552482        0.4827249359
 C         -3.1686799752        0.3815298851        0.4462497843
 C         -2.6658073309        1.5893754830       -0.0556375314
 C         -1.3850612577        1.6667577753       -0.5131837470
 Cl         0.3452149255        0.7315151376        2.5705871142
 H          2.5044923987       -0.0301429756       -3.3633331861
 H          2.6780299111       -1.6183171416       -3.0851664449
 H          0.8032367025        1.0551097969        3.7636628467
 H          3.4362862490        0.5133806539       -1.2139330099
 H          3.6246087607       -1.1940910826       -0.9140145072
 H          1.7113699922       -2.6068393727       -0.3992696913
 H         -0.5914218337       -2.7486784578        0.4187715772
 H          1.1779445163        1.5020167429       -1.3448261318
 H         -2.7695337953       -1.6589101086        0.8692618487
 H         -4.1840848338        0.3360716843        0.8055076116
 H         -3.2991711680        2.4614798297       -0.0773866201
 H         -0.9980243295        2.5955127480       -0.8968250942
  25
        -37.11801986
 N          3.2780964771        0.4210854908        1.1356015308
 C          2.4372253023       -0.5615887144        1.8078284600
 C          1.0583039178       -0.6239775502        1.2261818409
 C          0.6307830229       -1.7708566236        0.5285553691
 C         -0.5703613099       -1.7958224310       -0.1128235168
 C          0.2420487921        0.4713050935        1.2740173660
 C         -1.0128170013        0.4803951707        0.6249339920
 C         -1.4229702502       -0.6702259860       -0.0882512783
 C         -2.6720338700       -0.6558073638       -0.7497263335
 C         -3.4688550746        0.4482621583       -0.7030670863
 C         -3.0620949795        1.5884651211        0.0029795893
 C         -1.8644106715        1.6080727651        0.6519085270
 Cl         1.9707037607        0.3470568215       -2.1089790965
 H          3.0136886964        1.3610850527        1.4072988755
 H          3.1002483940        0.3664947374        0.1376657666
 H          1.0583017406       -0.1465722885       -1.2928593051
 H          2.3869859790       -0.3421591425        2.8812694332
 H          2.9181208488       -1.5431057337        1.7301672918
 H          1.2787828789       -2.6308138133        0.4930979376
 H         -0.8853305495       -2.6769305428       -0.6463625608
 H          0.5689455633        1.3549044575        1.7929006022
 H         -2.9851298695       -1.5319129256       -1.2920644564
 H         -4.4194862957        0.4482158482       -1.2114667020
 H         -3.7036220854        2.4544172437        0.0302852357
 H         -1.5514000205        2.4849645144        1.1928825368
  25
        -37.11743597
 N          2.9551053576        0.2668408243       -2.8432485502
 C          2.8297291020       -0.6257794457       -1.6990575422
 C          1.4413283819       -0.6590888496       -1.1373674382
 C          0.8962060277       -1.8569367178       -0.6361493264
 C         -0.3577745397       -1.8894592833       -0.1051772997
 C          0.6990538910        0.4861888312       -1.0798411992
 C         -0.6039517463        0.4929602362       -0.5345527695
 C         -1.1429908140       -0.7169377240       -0.0381750203
 C         -2.4417375554       -0.7085180590        0.5193584801
 C         -3.1627415522        0.4458645716        0.5798085337
 C         -2.6279328506        1.6444360785        0.0883134667
 C         -1.3797667579        1.6714912413       -0.4568672791
 Cl         0.7101560207        0.5225340165        2.8934156907
 H          2.2955674091        0.0056412964       -3.5667804738
 H          3.8832024337        0.2276826944       -3.2497486809
 H          0.1788925556        0.2732150538        1.7130498388
 H          3.5208833162       -0.2959525998       -0.9140073955
 H          3.1404111273       -1.6405880725       -1.9751599135
 H          1.4890138196       -2.7553574531       -0.6770114849
 H         -0.7647740682       -2.8115523049        0.2740966170
 H          1.1152648286        1.4011757322       -1.4617778404
 H         -2.8529085940       -1.6290363785        0.8980253248
 H         -4.1520281008        0.4409328928        1.0081406963
 H         -3.2110760221        2.5494564518        0.1436092942
 H         -0.9686103180        2.5926177845       -0.8339197625
  25
        -37.11740632
 N          2.9465836806        0.3008071379       -2.8177215211
 C          2.8194579856       -0.5947167895       -1.6760150055
 C          1.4277021690       -0.6377704310       -1.1234152204
 C          0.8860751684       -1.8403905298       -0.6299288112
 C         -0.3706140358       -1.8814875472       -0.1060212115
 C          0.6790043387        0.5033251916       -1.0659800554
 C         -0.6268620257        0.5012703369       -0.5275683502
 C         -1.1621374113       -0.7132598090       -0.0385192347
 C         -2.4638839513       -0.7137493320        0.5120647271
 C         -3.1913137717        0.4365843549        0.5728771176
 C         -2.6601820932        1.6397917975        0.0887707756
 C         -1.4092470573        1.6754478564       -0.4495328586
 Cl         0.7916109230        0.4749513293        2.8619026381
 H          3.8777699024        0.2691497949       -3.2175540325
 H          2.2941179761        0.0360727956       -3.5464757722
 H          0.2549765285        0.2333508460        1.6824183221
 H          3.5033436360       -0.2619531010       -0.8858419240
 H          3.1384095399       -1.6070201924       -1.9518602879
 H          1.4837968279       -2.7355462122       -0.6709294939
 H         -0.7749849068       -2.8071904494        0.2672432083
 H          1.0924175315        1.4218883176       -1.4423765519
 H         -2.8721637473       -1.6377973232        0.8851952732
 H         -4.1828068035        0.4248818716        0.9959410829
 H         -3.2483171782        2.5415535976        0.1444985492
 H         -1.0008240830        2.6002055537       -0.8205924541
  25
        -37.11708431
 N          2.9536211669       -1.3984909799       -2.8374905543
 C          2.8520114114       -0.5296938132       -1.6737265116
 C          1.4857016031       -0.5550326310       -1.0607140819
 C          1.0326177488       -1.7220519823       -0.4197110602
 C         -0.2123191461       -1.7854662706        0.1289258581
 C          0.6544417100        0.5279131464       -1.1450381410
 C         -0.6423803372        0.5010600524       -0.5846138103
 C         -1.0834180917       -0.6753041683        0.0658758230
 C         -2.3760607560       -0.6977680408        0.6370636874
 C         -3.1851462152        0.3958751110        0.5649045184
 C         -2.7484808166        1.5611428870       -0.0795420467
 C         -1.5091103541        1.6159984621       -0.6423950590
 Cl         0.6719250759        1.0802670563        2.7901089039
 H          3.8531050227       -1.3087417539       -3.2970056280
 H          2.2389032436       -1.1630725755       -3.5161939680
 H          0.1536355008        0.6396166743        1.6609829775
 H          3.1208187284        0.5004460321       -1.9404114544
 H          3.5858324006       -0.8500480960       -0.9255455913
 H          1.6896206231       -2.5745316990       -0.3767692127
 H         -0.5475156745       -2.6849487208        0.6170565056
 H          0.9889342866        1.4191149136       -1.6460796227
 H         -2.7121261786       -1.5932359308        1.1320517280
 H         -4.1688756106        0.3679398342        1.0049934102
 H         -3.4005478205        2.4182311420       -0.1285156120
 H         -1.1739174863        2.5119955597       -1.1369035019
