  21
        -25.31094118
 N         -1.2713107954        1.2963411498       -0.0008835808
 C         -0.2654019813        0.2438617873       -0.0146673179
 C          1.1630012525        0.7760724893        0.0024546546
 C          2.2129087618       -0.3343024112       -0.0117269117
 C          3.6463306712        0.1971936032        0.0127314326
 C          4.6859036951       -0.9133535115        0.0019143171
 Cl        -4.0324278217       -0.5622667234        0.0036977844
 H         -1.1338183883        1.8823786974        0.8151213719
 H         -2.9258910347        0.1900134818        0.0032829348
 H         -1.1340821386        1.9056833218       -0.8001049474
 H         -0.4216656513       -0.3879623413       -0.8973060070
 H         -0.4307285058       -0.4191984662        0.8441152524
 H          1.3068014410        1.4102544773        0.8849719503
 H          1.3163271470        1.4419219276       -0.8543917836
 H          2.0692222816       -0.9659835376       -0.8964839300
 H          2.0535627149       -1.0025801399        0.8431111297
 H          3.7819577351        0.8331852164        0.8971312195
 H          3.7993710290        0.8667924392       -0.8434519272
 H          4.5714734738       -1.5696991001        0.8664879301
 H          5.7053425454       -0.5221412370        0.0195929515
 H          4.5890204184       -1.5362108396       -0.8891139109
