  35
        -50.23152158
 N         -5.8489000946        0.0701773700        1.6803605588
 C         -5.9153266102       -0.9132074856        0.5601636925
 C         -5.3006292111       -0.3754162247       -0.7305551431
 C         -3.8330595963       -0.0923565621       -0.6046490146
 C         -2.9141342274       -1.1346762579       -0.5779273714
 C         -1.5688558259       -0.8910603049       -0.4409056320
 C         -1.0820198927        0.4198339974       -0.3216439914
 C          0.3131277029        0.7240093398       -0.1802497554
 C          1.3225964794       -0.1863513116       -0.1448682682
 C          2.7183488089        0.1159551067       -0.0055913864
 C          3.6486721530       -0.9317041231        0.0180256927
 C          5.0008278821       -0.6908394628        0.1512598602
 F          5.8719263598       -1.7119327867        0.1744846019
 C          5.4529006930        0.6175250647        0.2632706317
 C          4.5566365750        1.6668951496        0.2421885403
 C          3.2083963888        1.4279782299        0.1100043086
 C         -2.0186984529        1.4643141979       -0.3469661417
 C         -3.3617311733        1.2097809487       -0.4844023056
 H         -4.8756429381        0.3370172460        1.8680579311
 H         -6.2444789329       -0.3151287470        2.5458346715
 H         -6.3690056326        0.9235140439        1.4461189715
 H         -6.9610313489       -1.1992750840        0.3947493190
 H         -5.3974999605       -1.8318253906        0.8582861148
 H         -5.8210441039        0.5394560129       -1.0300730985
 H         -5.4549253925       -1.0822873983       -1.5533977496
 H         -3.2693378518       -2.1469743166       -0.6702485832
 H         -0.8851756991       -1.7205157295       -0.4260246796
 H          0.5631967216        1.7658313330       -0.0975985800
 H          1.0724304910       -1.2281260876       -0.2274750053
 H          3.3169455857       -1.9504115217       -0.0672629327
 H          6.5099667026        0.7913127483        0.3661610095
 H          4.9170897285        2.6790328189        0.3296883684
 H          2.5267832258        2.2591958697        0.0943459922
 H         -1.6726835626        2.4801141000       -0.2587817397
 H         -4.0624772841        2.0268103369       -0.5062601421
  35
        -50.23149057
 N         -5.7536240365       -1.6507558672       -0.9140932915
 C         -5.9111258531       -1.0014980630        0.4200902175
 C         -5.3318438862        0.4113436215        0.4579942855
 C         -3.8546614583        0.4429044300        0.2004084385
 C         -3.3507927784        0.8531065225       -1.0284806774
 C         -1.9989360691        0.8548054061       -1.2719291920
 C         -1.0853127969        0.4413949999       -0.2903672796
 C          0.3197695685        0.4593344650       -0.5804888773
 C          1.3102515584        0.0861255158        0.2730929365
 C          2.7155491815        0.1070219958       -0.0158714043
 C          3.6246388777       -0.3098510598        0.9657024252
 C          4.9849375097       -0.3077518387        0.7343638562
 F          5.8354026290       -0.7151644430        1.6897696370
 C          5.4668408267        0.1173621665       -0.4968259512
 C          4.5919063890        0.5330848346       -1.4800285802
 C          3.2355999187        0.5307690988       -1.2508109793
 C         -1.6045249306        0.0272370274        0.9458981288
 C         -2.9588116001        0.0292468916        1.1790341858
 H         -4.7622039762       -1.7006520756       -1.1756473716
 H         -6.2433606926       -1.1153405184       -1.6400326908
 H         -6.1296615760       -2.6060813668       -0.9159881655
 H         -5.4193894174       -1.6202306926        1.1791685773
 H         -6.9741229840       -0.9858173233        0.6894703082
 H         -5.5327447112        0.8834149914        1.4261636793
 H         -5.8409323046        1.0358265851       -0.2824930090
 H         -4.0336020458        1.1782053293       -1.7946952851
 H         -1.6279138017        1.1781946992       -2.2293682263
 H          0.5945364349        0.8010362368       -1.5615640647
 H          1.0357264483       -0.2571657490        1.2536765610
 H          3.2698229399       -0.6411768186        1.9245820184
 H          6.5299623198        0.1147890421       -0.6636267985
 H          4.9754455261        0.8611661144       -2.4325454368
 H          2.5709103307        0.8587198238       -2.0295838295
 H         -0.9389237143       -0.2966406953        1.7257611017
 H         -3.3393383722       -0.2907188648        2.1341767884
  35
        -50.23141857
 N         -5.5993681373       -1.2311219819       -1.6273892031
 C         -6.0573894255       -0.1587051958       -0.6963118803
 C         -5.3286671911       -0.1924877429        0.6458284425
 C         -3.8534383185        0.0466239157        0.5182991840
 C         -2.9436988105       -0.9953866208        0.6579885839
 C         -1.5933487888       -0.7804493079        0.5216327325
 C         -1.0919118266        0.4984509130        0.2339854017
 C          0.3083719505        0.7720448888        0.0819661292
 C          1.3113083808       -0.1388292276        0.1978011617
 C          2.7114181631        0.1345606899        0.0435894321
 C          3.6360197494       -0.9065673780        0.2015173618
 C          4.9919410368       -0.6924109907        0.0617582351
 F          5.8576927714       -1.7064660845        0.2173846148
 C          5.4536919524        0.5817319065       -0.2418696778
 C          4.5631592563        1.6239480584       -0.4023698680
 C          3.2112429722        1.4116889901       -0.2633686550
 C         -2.0192034664        1.5420349700        0.0931068576
 C         -3.3670906009        1.3165950285        0.2327682512
 H         -4.5933112121       -1.1439684655       -1.8114571608
 H         -6.0906605968       -1.1853044702       -2.5277455346
 H         -5.7652886713       -2.1594562476       -1.2221749817
 H         -7.1392927749       -0.2529385890       -0.5437590239
 H         -5.9065982231        0.8167392031       -1.1724018139
 H         -5.4974750613       -1.1598034424        1.1289530494
 H         -5.7491940486        0.5529895119        1.3299519774
 H         -3.3081575262       -1.9834667320        0.8815492801
 H         -0.9167113122       -1.6076660142        0.6380170478
 H          0.5684292718        1.7905748797       -0.1410491204
 H          1.0520243659       -1.1565168784        0.4254896448
 H          3.2969954339       -1.8988362831        0.4372940360
 H          6.5135716421        0.7348427028       -0.3482438462
 H          4.9309417006        2.6093877062       -0.6382933478
 H          2.5341422333        2.2365428132       -0.3937418560
 H         -1.6622852877        2.5337178459       -0.1271830734
 H         -4.0621864995        2.1316558478        0.1238686760
  35
        -50.23138747
 N         -5.6799956442       -0.7753311137       -1.7599418560
 C         -5.9542927248        0.2836361200       -0.7451170274
 C         -5.3041515315       -0.0116956113        0.6052808481
 C         -3.8073236072       -0.0744497754        0.5325943377
 C         -3.1385543579       -1.2922025288        0.5796164376
 C         -1.7692328054       -1.3494638473        0.4872496878
 C         -1.0032906043       -0.1828283740        0.3409804328
 C          0.4249980531       -0.2824364966        0.2472473309
 C          1.2855668287        0.7615249100        0.1112924161
 C          2.7135233079        0.6583581497        0.0177941488
 C          3.3882803654       -0.5694621729        0.0523768481
 C          4.7637996340       -0.6338635017       -0.0394614593
 F          5.3877704512       -1.8218928291       -0.0036591677
 C          5.4975965461        0.5382951928       -0.1689057994
 C          4.8558782916        1.7595884606       -0.2056715357
 C          3.4853571780        1.8250449361       -0.1144332458
 C         -1.6881923932        1.0411325118        0.2938792294
 C         -3.0584900934        1.0872337295        0.3870929998
 H         -6.1138398601       -0.5530819267       -2.6632418183
 H         -6.0447407796       -1.6821832812       -1.4471373995
 H         -4.6697981620       -0.8783880141       -1.9114631066
 H         -7.0388851390        0.3976550714       -0.6291730434
 H         -5.5914842207        1.2453714542       -1.1249166866
 H         -5.6868496614       -0.9596479108        0.9957889712
 H         -5.5909344295        0.7454574556        1.3435615435
 H         -3.7060506077       -2.1997073677        0.6952370152
 H         -1.2694140209       -2.3020671146        0.5278479140
 H          0.8324659530       -1.2758104769        0.2914226774
 H          0.8799101640        1.7557396195        0.0702606703
 H          2.8509016420       -1.4933936005        0.1509212879
 H          6.5693210502        0.4712060328       -0.2389844312
 H          5.4323410844        2.6648396937       -0.3062726300
 H          2.9907957622        2.7808633309       -0.1437185264
 H         -1.1391848545        1.9589032041        0.1826053328
 H         -3.5670347097        2.0356200353        0.3502408578
  35
        -50.23133247
 N         -5.7081229337       -1.8692771978       -0.5022125759
 C         -5.9015905725       -0.9003071391        0.6160977990
 C         -5.3398871504        0.4853884124        0.3019415827
 C         -3.8596294046        0.4794599714        0.0590991288
 C         -3.3415692801        0.6832457687       -1.2148596292
 C         -1.9863874470        0.6567290597       -1.4382879796
 C         -1.0834986285        0.4200682206       -0.3904043215
 C          0.3248074413        0.3894299672       -0.6635554147
 C          1.3038601384        0.1495513354        0.2491135104
 C          2.7119680190        0.1128978618       -0.0242127946
 C          3.6069519582       -0.1622317832        1.0184144004
 C          4.9690775237       -0.2115962828        0.8036098612
 F          5.8058163026       -0.4801279189        1.8184218336
 C          5.4672130717        0.0173592216       -0.4724033399
 C          4.6063979015        0.2915182852       -1.5158976803
 C          3.2482748054        0.3401639585       -1.3031626546
 C         -1.6166870756        0.2193720773        0.8921096144
 C         -2.9739478509        0.2500685180        1.1051402394
 H         -6.1774551669       -1.5403439981       -1.3534029338
 H         -6.0864728982       -2.7943589148       -0.2683838646
 H         -4.7105118158       -1.9819589478       -0.7167985030
 H         -5.4224879733       -1.2960029200        1.5185611352
 H         -6.9707370216       -0.8326509482        0.8512334475
 H         -5.5603898058        1.1830105625        1.1176357510
 H         -5.8482073789        0.8939219494       -0.5767741615
 H         -4.0158672596        0.8669370775       -2.0337905321
 H         -1.6045197585        0.8169442645       -2.4319825629
 H          0.6116745652        0.5676202966       -1.6837072251
 H          1.0166877886       -0.0360955827        1.2678448201
 H          3.2394446547       -0.3420507093        2.0122538567
 H          6.5315171163       -0.0244916659       -0.6260639884
 H          5.0023854935        0.4679214400       -2.5028352186
 H          2.5947096200        0.5556449307       -2.1291636058
 H         -0.9595595301        0.0399834645        1.7240424325
 H         -3.3645733966        0.0977252888        2.0969105716
  35
        -50.23025784
 N         -7.3321273182       -0.5898968191        0.8416213435
 C         -5.8595137521       -0.3482723499        0.9034249666
 C         -5.2058958857       -0.3249220383       -0.4741035963
 C         -3.7297393537       -0.0624000192       -0.4141013533
 C         -2.8219318371       -1.1121169968       -0.3333903716
 C         -1.4708940496       -0.8754755367       -0.2489408692
 C         -0.9679636856        0.4348069983       -0.2351761003
 C          0.4328733743        0.7332877037       -0.1502659763
 C          1.4381412146       -0.1809921742       -0.1007243729
 C          2.8381711661        0.1213945046       -0.0141851820
 C          3.7680331135       -0.9267662190        0.0071030343
 C          5.1240480172       -0.6844304566        0.0882585739
 F          5.9951938758       -1.7056635557        0.1050085983
 C          5.5803801387        0.6257655739        0.1515764602
 C          4.6845914595        1.6755907334        0.1335949226
 C          3.3327354332        1.4352471194        0.0520123846
 C         -1.8943479679        1.4863787956       -0.3058318563
 C         -3.2428480595        1.2390299638       -0.3911559315
 H         -7.7963635656        0.1428486033        0.2953535926
 H         -7.7496617067       -0.6005472109        1.7780628368
 H         -7.5325177449       -1.4903588083        0.3943442998
 H         -5.3870019539       -1.1197595505        1.5218904872
 H         -5.6659524052        0.5999160074        1.4177116940
 H         -5.6838794514        0.4360469824       -1.0986496698
 H         -5.3869615153       -1.2741900391       -0.9874910165
 H         -3.1903539471       -2.1238837405       -0.3373881896
 H         -0.7951334348       -1.7093965278       -0.1884647882
 H          0.6917476045        1.7760233094       -0.1300311944
 H          1.1813192460       -1.2239444663       -0.1336218349
 H          3.4332090817       -1.9468512012       -0.0417146621
 H          6.6402890137        0.8006778227        0.2150570454
 H          5.0480375616        2.6891662627        0.1843496849
 H          2.6515576420        2.2669217397        0.0419811135
 H         -1.5360968620        2.5016729850       -0.2932500358
 H         -3.9379333319        2.0598444251       -0.4413131509
  35
        -50.23023657
 N         -7.3136020345       -0.6074109037        0.8848508954
 C         -5.8432610037       -0.3477727032        0.9258306800
 C         -5.2079721035       -0.3235978706       -0.4602592915
 C         -3.7315883967       -0.0587461002       -0.4198129567
 C         -3.2420715886        1.2413853561       -0.4620430031
 C         -1.8927915650        1.4896841720       -0.3942686308
 C         -0.9681593739        0.4408449351       -0.2744401771
 C          0.4337731353        0.7389827033       -0.2079227384
 C          1.4340069667       -0.1747844034       -0.0916881578
 C          2.8359455622        0.1236608743       -0.0262644489
 C          3.7564003717       -0.9253545993        0.1004130805
 C          5.1139907461       -0.6876557130        0.1671516243
 F          5.9757431125       -1.7097553930        0.2887018273
 C          5.5814861250        0.6187600725        0.1076542152
 C          4.6951387878        1.6693756668       -0.0172196364
 C          3.3416125216        1.4336294192       -0.0836958907
 C         -1.4737500730       -0.8673917160       -0.2233480036
 C         -2.8255324305       -1.1050349236       -0.2920902199
 H         -7.7186201543       -0.6167877813        1.8267306131
 H         -7.5093085609       -1.5130516838        0.4461611696
 H         -7.7935295462        0.1164116502        0.3399017144
 H         -5.3537666086       -1.1109337345        1.5413886284
 H         -5.6537034085        0.6048866045        1.4333582735
 H         -5.6962838591        0.4354416334       -1.0790712726
 H         -5.3929619708       -1.2738213860       -0.9704946852
 H         -3.9356602483        2.0603256483       -0.5492247574
 H         -1.5325595321        2.5034304934       -0.4323104080
 H          0.6974174396        1.7796686765       -0.2549020912
 H          1.1707707275       -1.2155138326       -0.0434766811
 H          3.4126901592       -1.9425256368        0.1485099097
 H          6.6425495394        0.7901710211        0.1607241662
 H          5.0674209848        2.6799724480       -0.0629185468
 H          2.6679196406        2.2657209895       -0.1815693674
 H         -0.7994595636       -1.6994156592       -0.1276534517
 H         -3.1959629760       -2.1151042790       -0.2470424229
  35
        -50.23020381
 N         -7.3196527385       -0.1077437109        0.8557052546
 C         -5.8273422443       -0.1431661190        0.9095097810
 C         -5.1845406162       -0.0865146815       -0.4721959101
 C         -3.6856269272       -0.1321452318       -0.4203775387
 C         -3.0082156150       -1.3433792439       -0.4976539889
 C         -1.6375468925       -1.3911591214       -0.4217841652
 C         -0.8799353888       -0.2214368488       -0.2570634553
 C          0.5502014912       -0.3105558091       -0.1838611752
 C          1.4023893880        0.7359651437       -0.0182419550
 C          2.8324833732        0.6440448891        0.0503081886
 C          3.5197579029       -0.5720014680       -0.0630789199
 C          4.8971075563       -0.6256713407        0.0055664348
 F          5.5332387501       -1.8025159655       -0.1061887741
 C          5.6199614603        0.5457834342        0.1910286277
 C          4.9657903175        1.7555645914        0.3057189936
 C          3.5935106678        1.8103394697        0.2369827152
 C         -1.5744759206        0.9950238770       -0.1705396330
 C         -2.9459732326        1.0320295197       -0.2487118165
 H         -7.6816389852       -0.9073124016        0.3260705959
 H         -7.6451696927        0.7481273349        0.3946663791
 H         -7.7290706698       -0.1372960788        1.7955222274
 H         -5.5011467795       -1.0508885869        1.4297072440
 H         -5.4628517917        0.6914276620        1.5190743469
 H         -5.5019971275        0.8220840354       -0.9930418031
 H         -5.5524566116       -0.9139499147       -1.0864927868
 H         -3.5716992079       -2.2528339737       -0.6189626519
 H         -1.1302456385       -2.3383543528       -0.4878571502
 H          0.9663559512       -1.2977122437       -0.2680127268
 H          0.9875764391        1.7231363483        0.0718066651
 H          2.9909756866       -1.4946351612       -0.2088455601
 H          6.6932413414        0.4874893409        0.2423027407
 H          5.5338738731        2.6601887909        0.4498424383
 H          3.0892594061        2.7572234790        0.3272606207
 H         -1.0319039552        1.9142187997       -0.0410345642
 H         -3.4624879834        1.9741256115       -0.1770043752
  35
        -50.22840523
 N         -7.3916301858        0.3622992043        0.6341492203
 C         -5.9059843764        0.5061745728        0.7020747659
 C         -5.1844849850       -0.3823750172       -0.3079390368
 C         -3.6802369938       -0.3296552079       -0.2751994027
 C         -2.9683886315        0.5337726521        0.5520911822
 C         -1.5941477294        0.5525340330        0.5484220938
 C         -0.8617130022       -0.2980511672       -0.2931844584
 C          0.5725015507       -0.3134828361       -0.3321125964
 C          1.3942620471        0.4550618419        0.4313951064
 C          2.8282169779        0.4412129041        0.3877198546
 C          3.5518084008       -0.3800377604       -0.4874665585
 C          4.9317452102       -0.3675180889       -0.5054504180
 F          5.6029779624       -1.1615443656       -1.3545855866
 C          5.6207285082        0.4728936674        0.3595573366
 C          4.9304139205        1.2908122026        1.2308270243
 C          3.5554922119        1.2799749224        1.2490224198
 C         -1.5862102506       -1.1621781983       -1.1270831447
 C         -2.9597408059       -1.1731808822       -1.1139162238
 H         -7.8593936133        0.9726599552        1.3126112324
 H         -7.6709596131       -0.6042127150        0.8313895191
 H         -7.7359047400        0.6046051619       -0.3006756425
 H         -5.5674689249        0.2652055654        1.7159569749
 H         -5.6378287751        1.5548737273        0.5320566731
 H         -5.5200622607       -0.1234669356       -1.3170993898
 H         -5.4976331991       -1.4197429389       -0.1546799074
 H         -3.4990271606        1.2012938598        1.2079349176
 H         -1.0780104227        1.2336841404        1.2006585234
 H          1.0183913230       -0.9997180412       -1.0285564739
 H          0.9496833980        1.1344871373        1.1352710250
 H          3.0497127177       -1.0392526561       -1.1697334691
 H          6.6965210003        0.4710486480        0.3335283711
 H          5.4722667528        1.9400926340        1.8991745001
 H          3.0228790941        1.9202483689        1.9312273111
 H         -1.0513529742       -1.8253545233       -1.7855067761
 H         -3.4955247858       -1.8446505963       -1.7634212105
  35
        -50.22839365
 N         -7.5679601280       -0.0603373432        0.0371103322
 C         -6.1496367561        0.4044456353        0.1102914597
 C         -5.1501412854       -0.7270420069       -0.1147541654
 C         -3.6953442317       -0.3460208779       -0.0443613301
 C         -3.2604206377        0.9581725279        0.1705077359
 C         -1.9209237136        1.2597469565        0.2220834989
 C         -0.9454774660        0.2650115990        0.0582798719
 C          0.4439988390        0.6185887367        0.1148044424
 C          1.4864769483       -0.2397938192       -0.0446831281
 C          2.8764766239        0.1117658201        0.0105399082
 C          3.8443347743       -0.8811621095       -0.1922299449
 C          5.1927051719       -0.5913227038       -0.1499527625
 F          6.1006022265       -1.5600732568       -0.3482358388
 C          5.6027482843        0.7118990520        0.0995647688
 C          4.6689637983        1.7076597733        0.3034213674
 C          3.3245035273        1.4199981739        0.2611479209
 C         -1.3911888279       -1.0474110234       -0.1573973914
 C         -2.7333716967       -1.3373964644       -0.2061575627
 H         -7.7675874519       -0.4717352192       -0.8804755255
 H         -8.2243610791        0.7130889680        0.1877465145
 H         -7.7515673945       -0.7750867713        0.7489397442
 H         -5.9723272021        0.8669746909        1.0876616143
 H         -5.9906710267        1.1930244077       -0.6336112067
 H         -5.3420109641       -1.1835481991       -1.0907939519
 H         -5.3371552497       -1.5179613048        0.6182405186
 H         -3.9805872535        1.7469628229        0.2984713823
 H         -1.6075893650        2.2760519936        0.3893025180
 H          0.6605004878        1.6555786915        0.2951563682
 H          1.2696743341       -1.2752130032       -0.2334750242
 H          3.5454696130       -1.8949786574       -0.3871882871
 H          6.6572789823        0.9242271645        0.1298096324
 H          4.9969761906        2.7161718260        0.4966320597
 H          2.6131105525        2.2094622224        0.4239615113
 H         -0.6780911488       -1.8419391647       -0.2851709969
 H         -3.0550516853       -2.3515050538       -0.3734397791
  35
        -50.22666799
 N         -6.8216043232        1.0412772205        0.1755922201
 C         -6.1293789256       -0.1921383309        0.6596547605
 C         -5.2012824124       -0.8152505498       -0.3966567269
 C         -3.7471233892       -0.4622635873       -0.2432568043
 C         -2.7662873449       -1.4179654505       -0.4887607780
 C         -1.4307167600       -1.1131165597       -0.3805197784
 C         -1.0119459713        0.1776992476       -0.0236445773
 C          0.3696414253        0.5447046993        0.1002520898
 C          1.4303894069       -0.2821979665       -0.0999480233
 C          2.8121576783        0.0852089469        0.0208844252
 C          3.8022425071       -0.8779455888       -0.2155397685
 C          5.1436515524       -0.5717557479       -0.1116306246
 F          6.0731897851       -1.5124028657       -0.3422039668
 C          5.5241364297        0.7183533702        0.2342729697
 C          4.5680756700        1.6850739365        0.4718705249
 C          3.2305489444        1.3809487772        0.3688422231
 C         -2.0069706191        1.1374739536        0.2141371976
 C         -3.3385639263        0.8199739090        0.1024422308
 H         -6.1540002542        1.7472201917       -0.1537596315
 H         -7.3900037452        1.4678959854        0.9161287935
 H         -7.4443691812        0.8202930764       -0.6096375592
 H         -6.8951752805       -0.9142301501        0.9704723228
 H         -5.5582089891        0.0302695863        1.5684643290
 H         -5.5334343829       -0.5176941416       -1.3959488628
 H         -5.2950962602       -1.9069052170       -0.3748126932
 H         -3.0646287846       -2.4134148483       -0.7710020460
 H         -0.7011951825       -1.8781463784       -0.5760651937
 H          0.5638304120        1.5652518043        0.3751079083
 H          1.2363456778       -1.3032698781       -0.3729268171
 H          3.5265758282       -1.8813551507       -0.4844924197
 H          6.5735708960        0.9435951954        0.3118230880
 H          4.8730531116        2.6837791915        0.7395446259
 H          2.5015957556        2.1482988490        0.5576431972
 H         -1.7156263981        2.1374780262        0.4871859775
 H         -4.0795870681        1.5746896066        0.2913223255
