  35
        -50.23152158
 N         -5.8489000946        0.0701773700        1.6803605588
 C         -5.9153266102       -0.9132074856        0.5601636925
 C         -5.3006292111       -0.3754162247       -0.7305551431
 C         -3.8330595963       -0.0923565621       -0.6046490146
 C         -2.9141342274       -1.1346762579       -0.5779273714
 C         -1.5688558259       -0.8910603049       -0.4409056320
 C         -1.0820198927        0.4198339974       -0.3216439914
 C          0.3131277029        0.7240093398       -0.1802497554
 C          1.3225964794       -0.1863513116       -0.1448682682
 C          2.7183488089        0.1159551067       -0.0055913864
 C          3.6486721530       -0.9317041231        0.0180256927
 C          5.0008278821       -0.6908394628        0.1512598602
 F          5.8719263598       -1.7119327867        0.1744846019
 C          5.4529006930        0.6175250647        0.2632706317
 C          4.5566365750        1.6668951496        0.2421885403
 C          3.2083963888        1.4279782299        0.1100043086
 C         -2.0186984529        1.4643141979       -0.3469661417
 C         -3.3617311733        1.2097809487       -0.4844023056
 H         -4.8756429381        0.3370172460        1.8680579311
 H         -6.2444789329       -0.3151287470        2.5458346715
 H         -6.3690056326        0.9235140439        1.4461189715
 H         -6.9610313489       -1.1992750840        0.3947493190
 H         -5.3974999605       -1.8318253906        0.8582861148
 H         -5.8210441039        0.5394560129       -1.0300730985
 H         -5.4549253925       -1.0822873983       -1.5533977496
 H         -3.2693378518       -2.1469743166       -0.6702485832
 H         -0.8851756991       -1.7205157295       -0.4260246796
 H          0.5631967216        1.7658313330       -0.0975985800
 H          1.0724304910       -1.2281260876       -0.2274750053
 H          3.3169455857       -1.9504115217       -0.0672629327
 H          6.5099667026        0.7913127483        0.3661610095
 H          4.9170897285        2.6790328189        0.3296883684
 H          2.5267832258        2.2591958697        0.0943459922
 H         -1.6726835626        2.4801141000       -0.2587817397
 H         -4.0624772841        2.0268103369       -0.5062601421
