  24
        -25.65603311
 N         -2.6457374905        0.0015890203       -0.7426975612
 C         -2.0462102881       -0.0020598498        0.6226701076
 C         -0.5073262393       -0.0011419496        0.6373904307
 C          0.1005504663        1.2647461778       -0.0129900818
 C          1.6359110869        1.2732324592        0.1067214854
 C          2.2524483936        0.0012176274       -0.5036400097
 C          1.6373195535       -1.2724138141        0.1051946644
 C          0.1020451226       -1.2655695336       -0.0146692561
 H         -2.3663583367       -0.8285613382       -1.2848842010
 H         -2.3689204398        0.8360661666       -1.2795097297
 H         -3.6760908424       -0.0000935526       -0.6994371397
 H         -2.4164819115       -0.8777098732        1.1688147293
 H         -2.4176375049        0.8700183485        1.1737842089
 H         -0.1812568837       -0.0016879482        1.6907872089
 H         -0.3356844887        2.1680162186        0.4309610317
 H         -0.1784468321        1.2920112718       -1.0712207038
 H          1.9193339078        1.3448546566        1.1635735733
 H          2.0546356381        2.1712993695       -0.3673245378
 H          3.3433567429        0.0017521865       -0.3734930439
 H          2.0904283283        0.0017673380       -1.5881086637
 H          1.9206840364       -1.3448647681        1.1619962399
 H          2.0572194890       -2.1694322665       -0.3697735417
 H         -0.3332196466       -2.1700429995        0.4281000032
 H         -0.1768732483       -1.2917740595       -1.0729782103
