  24
        -25.65603311
 N         -2.6457374905        0.0015890203       -0.7426975612
 C         -2.0462102881       -0.0020598498        0.6226701076
 C         -0.5073262393       -0.0011419496        0.6373904307
 C          0.1005504663        1.2647461778       -0.0129900818
 C          1.6359110869        1.2732324592        0.1067214854
 C          2.2524483936        0.0012176274       -0.5036400097
 C          1.6373195535       -1.2724138141        0.1051946644
 C          0.1020451226       -1.2655695336       -0.0146692561
 H         -2.3663583367       -0.8285613382       -1.2848842010
 H         -2.3689204398        0.8360661666       -1.2795097297
 H         -3.6760908424       -0.0000935526       -0.6994371397
 H         -2.4164819115       -0.8777098732        1.1688147293
 H         -2.4176375049        0.8700183485        1.1737842089
 H         -0.1812568837       -0.0016879482        1.6907872089
 H         -0.3356844887        2.1680162186        0.4309610317
 H         -0.1784468321        1.2920112718       -1.0712207038
 H          1.9193339078        1.3448546566        1.1635735733
 H          2.0546356381        2.1712993695       -0.3673245378
 H          3.3433567429        0.0017521865       -0.3734930439
 H          2.0904283283        0.0017673380       -1.5881086637
 H          1.9206840364       -1.3448647681        1.1619962399
 H          2.0572194890       -2.1694322665       -0.3697735417
 H         -0.3332196466       -2.1700429995        0.4281000032
 H         -0.1768732483       -1.2917740595       -1.0729782103
  24
        -25.65559018
 N         -2.9481412568       -0.6557573346        0.2717504452
 C         -2.0119835847        0.3974537166       -0.2187410355
 C         -0.5551994620        0.1809695686        0.2233132872
 C          0.3253287857        1.4207598298       -0.0791300128
 C          1.7794565509        1.2172628638        0.3825217439
 C          2.3937993783       -0.0454360919       -0.2459144081
 C          1.5316665727       -1.2869308213        0.0421008206
 C          0.0763757711       -1.0802090266       -0.4166362696
 H         -2.9274862404       -0.7229058805        1.2997539551
 H         -2.7134481113       -1.5844949166       -0.1067531704
 H         -3.9212793732       -0.4537295115       -0.0028377893
 H         -2.3602493655        1.3735395948        0.1389824527
 H         -2.0568694102        0.4496458091       -1.3119343078
 H         -0.5559339695        0.0327053622        1.3141674781
 H         -0.1085565816        2.3157421303        0.3837735772
 H          0.3063089932        1.6127829178       -1.1574042442
 H          1.8064722083        1.1306106733        1.4753015883
 H          2.3868870647        2.1014331114        0.1459652789
 H          3.4208481652       -0.1959082173        0.1140242598
 H          2.4834495734        0.0931025858       -1.3299966812
 H          1.5480088097       -1.4994000887        1.1177086600
 H          1.9642431182       -2.1761817337       -0.4361333940
 H         -0.5273624487       -1.9669547529       -0.1905975801
 H          0.0459866307       -0.9765877183       -1.5066633258
  24
        -25.65456245
 N         -2.7435682154       -0.5544914110       -0.4535600677
 C         -1.5904161952        0.3928880500       -0.4367367682
 C         -0.5996056136        0.1337157273        0.7103323578
 C          0.4210965713        1.2950026379        0.8760287458
 C          1.4838915125        1.3110275765       -0.2376626953
 C          2.2096150083       -0.0404085112       -0.3440074649
 C          1.2132492089       -1.1947777849       -0.5432028361
 C          0.1502335987       -1.2194097938        0.5698703698
 H         -3.2565876791       -0.5321036841        0.4396878748
 H         -2.4420732453       -1.5259701368       -0.6146979189
 H         -3.4160514495       -0.3183193770       -1.1986070815
 H         -1.9775066717        1.4156856019       -0.3583077574
 H         -1.0668485140        0.3501597694       -1.3967173902
 H         -1.2001899066        0.0846288862        1.6347924785
 H          0.9193450478        1.2094322415        1.8488822672
 H         -0.1111042713        2.2540174272        0.9060213472
 H          2.2064643560        2.1208704037       -0.0660760048
 H          1.0104201715        1.5489041442       -1.1970617656
 H          2.7918441582       -0.2145342763        0.5688541607
 H          2.9461691537       -0.0205446269       -1.1590278792
 H          1.7448448010       -2.1554045360       -0.5868660836
 H          0.7260926063       -1.0939941719       -1.5195932681
 H          0.6350307428       -1.4668612037        1.5219104350
 H         -0.5661057471       -2.0303274010        0.3938702362
  24
        -25.65265410
 N         -1.9491368877        0.0504892505       -1.1343320283
 C         -1.9460332787       -0.0327219021        0.3525602423
 C         -0.5602367956       -0.0113524269        1.0291200697
 C          0.2525900841        1.2912307483        0.7676836584
 C          1.1284430745        1.2559876471       -0.4988244741
 C          2.0162638259        0.0046011237       -0.5391704888
 C          1.1618599392       -1.2692063456       -0.4743159302
 C          0.2828026205       -1.3000304426        0.7896172526
 H         -2.9102658293        0.0062660335       -1.5062202659
 H         -1.4294655376       -0.7271453059       -1.5641102928
 H         -1.5447175474        0.9364975317       -1.4684920895
 H         -2.4783539577       -0.9437531323        0.6516381875
 H         -2.5499939149        0.7960198903        0.7423152528
 H         -0.7745733119       -0.0066260223        2.1149272130
 H          0.8928692739        1.5032367631        1.6324827704
 H         -0.4427100047        2.1381034832        0.7135662094
 H          1.7483504816        2.1616092641       -0.5578084709
 H          0.5017112462        1.2854117640       -1.3957638331
 H          2.7100861234        0.0220723456        0.3100001896
 H          2.6512143809        0.0043170041       -1.4359191481
 H          1.8071465848       -2.1582214636       -0.5095162619
 H          0.5397630838       -1.3395658800       -1.3721962525
 H          0.9249562628       -1.4838771665        1.6596629707
 H         -0.3931059129       -2.1632033298        0.7477228282
  24
        -25.64754332
 N         -2.2877634117       -0.3345141299       -0.9402833656
 C         -2.0417540463        0.0607030022        0.4765837237
 C         -0.5553330506        0.1673904901        0.8628496485
 C          0.1561013327        1.3563290856        0.1526236681
 C          1.6876909479        1.2152364766        0.2127014028
 C          2.1774152582       -0.0444587452       -0.5460067126
 C          1.1043000446       -1.1590875812       -0.6109169619
 C          0.2120442866       -1.1774656046        0.6450974125
 H         -1.8858935295       -1.2585813835       -1.1543947071
 H         -1.8905207922        0.3443305191       -1.6052994269
 H         -3.2976245064       -0.3935139649       -1.1410550417
 H         -2.5379633258       -0.6650869865        1.1321592173
 H         -2.5379224011        1.0194247113        0.6687696434
 H         -0.5217462630        0.3870803533        1.9437254761
 H         -0.1666574411        2.3117036390        0.5848559840
 H         -0.1596133553        1.3915686799       -0.8940190985
 H          1.9941397293        1.1506807585        1.2636083070
 H          2.1763562208        2.1183264075       -0.1757275871
 H          3.0869139511       -0.4349386162       -0.0728160061
 H          2.4816401502        0.2347911774       -1.5625811078
 H          1.5786221249       -2.1386718548       -0.7572256916
 H          0.4777138235       -1.0091696427       -1.4969707262
 H          0.8407365529       -1.3912075095        1.5177417430
 H         -0.5030550443       -2.0069798984        0.6002644326
  24
        -25.64743779
 N         -2.3090597338        0.3148435000       -0.9325666559
 C         -2.0440893189       -0.0570238131        0.4871504096
 C         -0.5528341787       -0.1641534723        0.8536712649
 C          0.2105095048        1.1836508446        0.6362104826
 C          1.1228497983        1.1630143760       -0.6056286008
 C          2.1936446102        0.0478004725       -0.5238983094
 C          1.6840350722       -1.2212703169        0.2067498302
 C          0.1521000497       -1.3470693010        0.1283289724
 H         -3.3212631372        0.3908156401       -1.1151751886
 H         -1.9393670119       -0.3859179360       -1.5907124257
 H         -1.8916712248        1.2252508232       -1.1736546682
 H         -2.5421718425       -1.0098330272        0.7023822301
 H         -2.5268569549        0.6819497069        1.1380619298
 H         -0.5059823254       -0.3908403918        1.9326193327
 H          0.8233821979        1.4094516717        1.5169100774
 H         -0.5092572867        2.0078669270        0.5730470469
 H          1.6011896747        2.1418785719       -0.7439415913
 H          0.5104411051        1.0146769286       -1.5018825128
 H          3.0900220931        0.4328196046       -0.0220754186
 H          2.5253299462       -0.2195841205       -1.5350890014
 H          1.9794642061       -1.1786449243        1.2619240629
 H          2.1687251166       -2.1217111752       -0.1925722025
 H         -0.1849329444       -2.3069712555        0.5393381474
 H         -0.1528407280       -1.3587914932       -0.9220656578
  24
        -25.64725773
 N         -2.9196614936        0.5226535411       -0.2751135251
 C         -1.8596978257       -0.5226537168       -0.1769413036
 C         -0.5906285471       -0.0365977370        0.5403750491
 C          0.0833768250        1.1464204494       -0.2184756777
 C          1.5843123423        1.2631011801        0.1046192627
 C          2.3670161028        0.0050030748       -0.3464121034
 C          1.5009576339       -1.2788732830       -0.3119039111
 C          0.4168218090       -1.2087227126        0.7793259433
 H         -3.1954502985        0.8616802477        0.6580030074
 H         -3.7690927155        0.1593299621       -0.7329836021
 H         -2.6033197637        1.3368089908       -0.8212902176
 H         -1.5985159026       -0.8757244266       -1.1801838892
 H         -2.2690127229       -1.3943103409        0.3471577080
 H         -0.9051557839        0.3430712763        1.5254863551
 H         -0.4333542348        2.0889113463       -0.0005778266
 H         -0.0397369499        0.9883107666       -1.2948753131
 H          1.7038339054        1.4000204106        1.1859162388
 H          2.0088245158        2.1676439418       -0.3502069146
 H          3.2515888979       -0.1300003015        0.2884038710
 H          2.7615580565        0.1598900341       -1.3583586066
 H          2.1321493120       -2.1663993684       -0.1716177026
 H          1.0177960768       -1.4206206728       -1.2854729709
 H          0.9030188579       -1.0872403087        1.7543415899
 H         -0.1255650049       -2.1593434423        0.8432520611
  24
        -25.64713969
 N         -2.9294352416        0.5288177023       -0.2501874050
 C         -1.8684876720       -0.5178424789       -0.1796952649
 C         -0.5898674594       -0.0395321371        0.5258808857
 C          0.0862935476        1.1372814476       -0.2395502509
 C          1.5814811360        1.2661590846        0.1043907651
 C          2.3787205563        0.0082258380       -0.3219728095
 C          1.5137824844       -1.2765028750       -0.3124486502
 C          0.4121142379       -1.2176317077        0.7619871566
 H         -3.1901166811        0.8581294095        0.6907526705
 H         -3.7863916064        0.1707370980       -0.6980503918
 H         -2.6213376974        1.3485782790       -0.7926470577
 H         -1.6215941171       -0.8600915512       -1.1902840779
 H         -2.2710616827       -1.3948153965        0.3407366494
 H         -0.8950982171        0.3447775797        1.5121107252
 H         -0.4389024718        2.0794174146       -0.0414736004
 H         -0.0208685913        0.9640885110       -1.3153593414
 H          1.6832846262        1.4142429277        1.1860421777
 H          2.0075215864        2.1688923142       -0.3525357484
 H          3.2443134563       -0.1253006530        0.3387899202
 H          2.8029477098        0.1625404840       -1.3219467240
 H          2.1442084051       -2.1640964882       -0.1688528681
 H          1.0472708882       -1.4111508443       -1.2951008631
 H          0.8833236193       -1.1124372543        1.7462179065
 H         -0.1336623150       -2.1675307796        0.8034831831
  24
        -25.64694207
 N         -2.9118432276       -0.6307372333        0.4058695422
 C         -2.0067675187        0.3823672904       -0.2102725332
 C         -0.5331806080        0.2001040391        0.1846782515
 C          0.3480440926        1.3728282448       -0.3170010414
 C          1.7964586871        1.2919929303        0.2275038305
 C          2.2693901865       -0.1651977586        0.4569047742
 C          1.5799996302       -1.1428930822       -0.5111748460
 C          0.0436266156       -1.1632844717       -0.3081543014
 H         -2.8585147313       -0.6011612528        1.4344938451
 H         -2.6707204623       -1.5872639377        0.1088075676
 H         -3.8959730870       -0.4683126181        0.1445518174
 H         -2.3444417240        1.3844604280        0.0789082480
 H         -2.0988834648        0.3425067050       -1.3010666198
 H         -0.4820157628        0.2036469162        1.2843263235
 H         -0.1136358716        2.3311836431       -0.0514298571
 H          0.3613275389        1.3517431926       -1.4120659387
 H          1.8701652504        1.8589000053        1.1638507924
 H          2.4809996171        1.7953089918       -0.4664301599
 H          2.0432610743       -0.4670158717        1.4863998360
 H          3.3614377625       -0.2372228156        0.3674883326
 H          1.9984426547       -2.1523522155       -0.4038042951
 H          1.8098339248       -0.8432742499       -1.5403834512
 H         -0.2231379304       -1.9543251059        0.4019762435
 H         -0.4525626586       -1.4380145813       -1.2454687530
  24
        -25.64686181
 N         -2.9713186501       -0.5898842059        0.1013125453
 C         -1.8627661087        0.2229933128       -0.4803839052
 C         -0.6005820877        0.2551385275        0.3974494651
 C          0.3495471816        1.4207332244       -0.0178664708
 C          1.7991269076        1.1741469624        0.4365706851
 C          2.4025305158       -0.0834691994       -0.2370553498
 C          1.3287023256       -1.1421237571       -0.5908533078
 C          0.1482219009       -1.1166730292        0.3984442128
 H         -2.7059715087       -1.5780240273        0.2188503597
 H         -3.8102766381       -0.5690474553       -0.4977408056
 H         -3.2480737069       -0.2323541757        1.0271692291
 H         -2.2237886262        1.2465697227       -0.6361405891
 H         -1.6070202263       -0.1556403420       -1.4757533527
 H         -0.9348633193        0.4563749500        1.4275537068
 H         -0.0232273845        2.3777097002        0.3677847718
 H          0.3271922658        1.5194283262       -1.1082402984
 H          1.8114514273        1.0475074630        1.5256339048
 H          2.4220234625        2.0566903217        0.2405520439
 H          3.1594240508       -0.5306382163        0.4192621866
 H          2.9466607111        0.2100113011       -1.1434691859
 H          1.7752391730       -2.1444906809       -0.6313091963
 H          0.9502749623       -0.9551569802       -1.6023892475
 H          0.5255820444       -1.3327587288        1.4047644495
 H         -0.5534462862       -1.9268068318        0.1720862313
  24
        -25.64680725
 N         -2.6717307277       -0.0091592725       -0.6671944422
 C         -2.0128899103        0.0219951069        0.6709577894
 C         -0.4744337594        0.0264744043        0.6214376696
 C          0.0913610308        1.1981043785       -0.2165315371
 C          1.6282143602        1.3282888345       -0.0643374738
 C          2.3223949372       -0.0363328024        0.1759353748
 C          1.5394334937       -1.1942087203       -0.4698164515
 C          0.1162800396       -1.3311955735        0.1291341147
 H         -2.4023509351       -0.8406293143       -1.2120005606
 H         -2.4348075648        0.8220171670       -1.2278164627
 H         -3.6989493580       -0.0276054769       -0.5779898592
 H         -2.3556990767       -0.8375870368        1.2587900511
 H         -2.3645469636        0.9094331677        1.2108030895
 H         -0.1080420364        0.1753183168        1.6506756045
 H         -0.4108216685        2.1335940856        0.0566053840
 H         -0.1577937570        1.0265682502       -1.2687499569
 H          1.8601134957        2.0144044351        0.7596701119
 H          2.0499883516        1.8024912857       -0.9591187838
 H          2.4050271064       -0.2219334953        1.2533899555
 H          3.3562885499       -0.0153399679       -0.1933282861
 H          2.0932788316       -2.1371287970       -0.3706124362
 H          1.4673434384       -1.0141646379       -1.5487601883
 H          0.1317019653       -2.0464941669        0.9599328559
 H         -0.5593200015       -1.7720744191       -0.6104963873
