15
 energy: -19.029809786172 gnorm: 0.000211741066 xtb: 6.5.1 (fef0646)
N            1.08864462386718       -0.30006807745924        0.18206116006925
C            2.54180872184554       -0.31720563995526        0.44712570393027
C            3.01584891165080        1.06649359125336        0.87399870471554
C            4.53073699188746        1.10042356784879        1.03853125912670
Cl           0.47906841560496        1.64332459513591       -2.10066060701908
H            0.74666777406129       -1.21794778976684       -0.11046368484306
H            0.87661962127171        0.37738817060035       -0.59409469262510
H            0.57417347718984        0.01379100249305        1.00834385363822
H            3.05713984164623       -0.60554190237523       -0.46874957249338
H            2.76160540257824       -1.04759771250959        1.22707240265890
H            2.54647711429598        1.34711131077412        1.81778626806465
H            2.70956351861273        1.78916340107524        0.11537323295304
H            4.85282307218691        0.37408780597377        1.78067087984762
H            4.85579023314896        2.08611259342829        1.35982637432914
H            5.02257228015228        0.87269508348320        0.09606871764716
