19
 energy: -28.679995962645 gnorm: 0.000905727383 xtb: 6.5.1 (fef0646)
N            1.10610531767385       -0.05074266104460       -0.33238797383527
C            2.57882559371131        0.00104615888250       -0.35287697592816
C            3.12647203512801       -0.48179379233473       -1.69957678850396
C            4.61180007558425       -0.35352812612510       -1.72992047229173
C            5.55662146061659       -1.31921055142101       -1.58579961662673
C            6.87850983677089       -0.81561311369718       -1.62766666168700
C            6.92042955309230        0.52841797738305       -1.79823027783240
S            5.34849798344765        1.21137499013588       -1.91387634855429
Cl           0.10505668581136        0.58029132705030        2.46581123957033
H            0.74752136387004        0.20390032459396        0.62409542037346
H            0.76938914689350       -0.99444439721692       -0.53808761796535
H            0.70367400738948        0.60658232445467       -1.00437279330401
H            2.96212707155220       -0.62169549202804        0.45471895099657
H            2.89849596038697        1.02609300488280       -0.16783860719012
H            2.70178558182491        0.11962794939009       -2.50373001646080
H            2.86605190533084       -1.52776900101475       -1.85923841951360
H            5.32765956195589       -2.36157515210171       -1.45753283614662
H            7.75621445462758       -1.42964590483694       -1.53400767351434
H            7.77568240433199        1.17110413504751       -1.86476253158603
