15
 energy: -18.079296960136 gnorm: 0.000431636417 xtb: 6.5.1 (fef0646)
O            2.96380403026167       -1.30594046717020        0.21430281797842
C            2.48158781141390        0.03776422623668        0.14284121421306
C            2.99742102638064        0.67755725476286       -1.14618705284464
C            4.51996661442053        0.72183341857686       -1.18274049119992
N            5.03277216392871       -0.67772902008853       -1.21803181604792
H            2.56267227511026       -1.75842884357457        0.96357538669831
H            2.83243444227018        0.60347006680060        1.01419248483444
H            1.38861106132665        0.04334552898169        0.13989010640321
H            2.60446473588608        1.69053846852788       -1.21075978364915
H            2.62047017977404        0.11645422361917       -2.00243606435062
H            4.90172731336091        1.20516933047754       -0.28190873338494
H            4.87655363209102        1.27343964520970       -2.05315131319411
H            4.41170683188422       -1.20619873755777       -0.53651456430477
H            6.02053577020193       -0.74544472657025       -0.95989624117546
H            4.90023211168927       -1.09213036823167       -2.14588594997589
