21
 energy: -25.831273699505 gnorm: 0.000175978496 xtb: 6.5.1 (fef0646)
N            2.70135659085395        0.17210736772814        1.54953078706206
C            2.43546854236302        0.04605665183377        0.08313193636640
C            0.94834921873740        0.26130114988850       -0.16932883846146
C            2.90483320698510       -1.30546451858051       -0.40411692336457
C            3.89717025893111       -1.39048435911421       -1.37175684999841
C            4.32906608884129       -2.62423845528724       -1.82759647520686
C            3.77456434841624       -3.78573673241562       -1.31691888853528
C            2.78293178242343       -3.70885766928479       -0.35269656786295
C            2.34998117653367       -2.47628290991865        0.10165456052994
H            3.70455722726591        0.08488586578478        1.74908994062428
H            2.20396862514617       -0.56945544540884        2.05713411530515
H            2.36901174541814        1.08067421900450        1.89436247472161
H            3.00533825749327        0.82344275295500       -0.43143552315854
H            0.34664283317042       -0.47331320875667        0.35705667031602
H            0.73873515736642        0.15920420203363       -1.22971554389581
H            0.64274178085231        1.25785592708568        0.13621325637809
H            4.33477955950005       -0.49207346741525       -1.78018550284610
H            5.09993203746476       -2.68114115533955       -2.58131569697729
H            4.11179150121121       -4.74809727885394       -1.67186559986044
H            2.34642558647083       -4.61384810906338        0.04203370820593
H            1.56431447455538       -2.44640482687524        0.84076496065844
