  27
        -28.81937753
 N         -3.0655640075       -0.3181052312        0.9447965961
 C         -2.6567860636       -0.1566097060       -0.4829586969
 C         -1.4665205880        0.7805835975       -0.6682628776
 C         -0.1573892621        0.3131745662       -0.0002121488
 C          0.9478457915        1.3940289047       -0.1117723230
 C          2.2524068629        0.9547377657        0.5758794301
 C          2.7559622084       -0.3847092131        0.0110092763
 C          1.6714431878       -1.4714360029        0.1094404799
 C          0.3653431642       -1.0263325250       -0.5741659991
 H         -3.2806396993        0.5939419323        1.3732562472
 H         -2.3253607156       -0.7607005140        1.5083562263
 H         -3.9087394588       -0.9052395739        1.0340534753
 H         -3.5172386767        0.2183174762       -1.0518869529
 H         -2.4369744697       -1.1404199548       -0.9113248468
 H         -1.7313680565        1.7685961794       -0.2771348811
 H         -1.2747920974        0.9345301247       -1.7355274993
 H         -0.3551677844        0.1586997375        1.0707451256
 H          0.5906309120        2.3454465790        0.3002233218
 H          1.1417348417        1.5913134168       -1.1710967348
 H          2.0804975733        0.8540526364        1.6535112082
 H          3.0224168628        1.7307106068        0.4752894502
 H          3.6706741536       -0.7030253138        0.5278986557
 H          3.0456487622       -0.2525326543       -1.0377110628
 H          1.4733108724       -1.6918140624        1.1645106021
 H          2.0305708750       -2.4148835848       -0.3219059874
 H         -0.3982457374       -1.8070186849       -0.4844407205
 H          0.5359115837       -0.9069987670       -1.6489286360
