  27
        -28.81937753
 N         -3.0655640075       -0.3181052312        0.9447965961
 C         -2.6567860636       -0.1566097060       -0.4829586969
 C         -1.4665205880        0.7805835975       -0.6682628776
 C         -0.1573892621        0.3131745662       -0.0002121488
 C          0.9478457915        1.3940289047       -0.1117723230
 C          2.2524068629        0.9547377657        0.5758794301
 C          2.7559622084       -0.3847092131        0.0110092763
 C          1.6714431878       -1.4714360029        0.1094404799
 C          0.3653431642       -1.0263325250       -0.5741659991
 H         -3.2806396993        0.5939419323        1.3732562472
 H         -2.3253607156       -0.7607005140        1.5083562263
 H         -3.9087394588       -0.9052395739        1.0340534753
 H         -3.5172386767        0.2183174762       -1.0518869529
 H         -2.4369744697       -1.1404199548       -0.9113248468
 H         -1.7313680565        1.7685961794       -0.2771348811
 H         -1.2747920974        0.9345301247       -1.7355274993
 H         -0.3551677844        0.1586997375        1.0707451256
 H          0.5906309120        2.3454465790        0.3002233218
 H          1.1417348417        1.5913134168       -1.1710967348
 H          2.0804975733        0.8540526364        1.6535112082
 H          3.0224168628        1.7307106068        0.4752894502
 H          3.6706741536       -0.7030253138        0.5278986557
 H          3.0456487622       -0.2525326543       -1.0377110628
 H          1.4733108724       -1.6918140624        1.1645106021
 H          2.0305708750       -2.4148835848       -0.3219059874
 H         -0.3982457374       -1.8070186849       -0.4844407205
 H          0.5359115837       -0.9069987670       -1.6489286360
  27
        -28.81824885
 N         -3.8705699065        0.4792635976        0.0407019940
 C         -2.4551077094        0.5366906541        0.5189831490
 C         -1.5048669831       -0.2503834594       -0.3755993227
 C         -0.0456998422       -0.2977160977        0.1254323967
 C          0.6406017815        1.0903955692        0.1072231952
 C          2.0898886867        1.0183207980        0.6216775555
 C          2.9191492717       -0.0023074334       -0.1769536241
 C          2.2494639362       -1.3873228789       -0.1721864209
 C          0.8013958717       -1.3080497624       -0.6876769052
 H         -4.5043811329        1.0149430824        0.6526075596
 H         -4.2146812890       -0.4915763641        0.0124935717
 H         -3.9576314786        0.8655026650       -0.9106172827
 H         -2.4048672330        0.1515274889        1.5439214734
 H         -2.1396415275        1.5838960421        0.5802221202
 H         -1.5236079755        0.1652556617       -1.3875624673
 H         -1.8836161211       -1.2724317359       -0.4793229741
 H         -0.0593067939       -0.6452564487        1.1697577221
 H          0.0614447915        1.8131664552        0.6927601644
 H          0.6341317814        1.4735416114       -0.9182202606
 H          2.0865949216        0.7346707369        1.6802518126
 H          2.5611659583        2.0091754904        0.5878799226
 H          3.9409452586       -0.0654479500        0.2194063227
 H          3.0290431983        0.3459480503       -1.2102892380
 H          2.2517017269       -1.7892586196        0.8473778403
 H          2.8331348777       -2.1012786881       -0.7677794668
 H          0.3279504339       -2.2970903396       -0.6740190131
 H          0.8030416542       -1.0010178745       -1.7385511119
  27
        -28.81819645
 N         -2.8288926654        1.3266235370       -0.4767704105
 C         -2.4055151683       -0.1073959786       -0.4775612319
 C         -1.6295941293       -0.5099009654        0.7821750558
 C         -0.0908937671       -0.3991151310        0.6861411437
 C          0.4153119955        1.0218616987        0.3488799541
 C          1.9528055669        1.0909213905        0.3954529019
 C          2.5872744078        0.0555342529       -0.5514260575
 C          2.0690099058       -1.3652151702       -0.2616560403
 C          0.5303023369       -1.4182771842       -0.2995448155
 H         -3.3532425139        1.5688352958       -1.3310044710
 H         -2.0265689039        1.9690916693       -0.4169538368
 H         -3.4442853460        1.5289692346        0.3247383933
 H         -1.8161772815       -0.3192351030       -1.3755745816
 H         -3.3091091360       -0.7235280223       -0.5767659081
 H         -1.8810158308       -1.5416460514        1.0554900868
 H         -1.9860929111        0.1005133075        1.6184499145
 H          0.3195712529       -0.6452218707        1.6795999628
 H         -0.0338431653        1.7577559586        1.0260408088
 H          0.0762381236        1.2899893595       -0.6562173630
 H          2.2954181989        0.9052152762        1.4197525881
 H          2.3016375626        2.1027879953        0.1518017915
 H          3.6822085724        0.0880269072       -0.4790206083
 H          2.3575614175        0.3222343958       -1.5892739253
 H          2.4211823610       -1.6874524898        0.7248677707
 H          2.4971285864       -2.0847168989       -0.9717111969
 H          0.1651069549       -2.4290874005       -0.0820495701
 H          0.1878205116       -1.1951155410       -1.3143098360
  27
        -28.81812093
 N         -3.0181769516        1.4117395619        0.2204893924
 C         -2.6529147945       -0.0229344586        0.4293842503
 C         -1.5881076879       -0.5236924903       -0.5560225911
 C         -0.1480186829       -0.5424293321       -0.0001074423
 C          0.3700154744        0.8595929242        0.4008832618
 C          1.8057956352        0.8036852481        0.9548023044
 C          2.7690065585        0.1358248081       -0.0417115640
 C          2.2670666568       -1.2605309335       -0.4471296547
 C          0.8341715760       -1.1956925428       -1.0046545967
 H         -2.2034424799        2.0357091015        0.3046690816
 H         -3.7216537761        1.7289369743        0.9046023238
 H         -3.4189827294        1.5566774504       -0.7178162269
 H         -3.5686098435       -0.6219720914        0.3382748025
 H         -2.3137002673       -0.1753362204        1.4604951409
 H         -1.6143021421        0.0927305335       -1.4595920050
 H         -1.8412131573       -1.5351691233       -0.8949628796
 H         -0.1480729136       -1.1627961357        0.9094140070
 H         -0.3022040717        1.3163717526        1.1355950568
 H          0.3391521665        1.5129386130       -0.4767770511
 H          1.8111731326        0.2426439756        1.8962484113
 H          2.1581280114        1.8102776965        1.2149017005
 H          3.7811404561        0.0758020946        0.3792426307
 H          2.8623798348        0.7634832577       -0.9352893787
 H          2.2889845054       -1.9231283535        0.4255752920
 H          2.9460452053       -1.7189865289       -1.1779023599
 H          0.4798724922       -2.1945957502       -1.2863027950
 H          0.8285312129       -0.6134724094       -1.9318215981
  27
        -28.81800679
 N         -2.8228351902        0.9739403226        0.9857118138
 C         -2.7795087007       -0.1116729671       -0.0384447134
 C         -1.5479711837       -0.0735045369       -0.9416486506
 C         -0.1975880839       -0.3022795677       -0.2133867573
 C          0.4600899012        1.0165189014        0.2631539341
 C          1.7753158457        0.7553874927        1.0186069981
 C          2.7650696098       -0.0456931038        0.1544582066
 C          2.1306447207       -1.3530884444       -0.3514940776
 C          0.8096976009       -1.0839424805       -1.0949485738
 H         -2.0719769158        0.8702964052        1.6832796661
 H         -3.7151519073        0.9677399949        1.5028995387
 H         -2.7301057274        1.9026122506        0.5484175831
 H         -3.6885151338       -0.0480033741       -0.6502974398
 H         -2.8375759263       -1.0827927152        0.4670700888
 H         -1.5098469602        0.8805996451       -1.4766684547
 H         -1.6586304058       -0.8326547548       -1.7248777564
 H         -0.3931891861       -0.9201136804        0.6762744304
 H         -0.2335264830        1.6019888724        0.8753235306
 H          0.6650611586        1.6402015246       -0.6131486337
 H          1.5628524492        0.1986265832        1.9382383613
 H          2.2265472404        1.7003477369        1.3478956598
 H          3.6857722952       -0.2546343327        0.7146827750
 H          3.0778109134        0.5630223262       -0.7016096506
 H          1.9410816339       -2.0182765035        0.4986227138
 H          2.8319442373       -1.8985279643       -0.9963817446
 H          0.3612329578       -2.0223858233       -1.4425426026
 H          1.0099144303       -0.5031433416       -2.0011668692
  27
        -28.81790325
 N         -2.8274340280        1.0308807616        0.9480647062
 C         -2.7779940307       -0.1120695069       -0.0118457301
 C         -1.5521374394       -0.1180337171       -0.9241749993
 C         -0.1959659502       -0.3287095669       -0.2033579768
 C          0.4453715324        0.9959591469        0.2788668900
 C          1.7682592732        0.7476214830        1.0249809104
 C          2.7658171932       -0.0267821646        0.1460203308
 C          2.1502573151       -1.3396833745       -0.3688688314
 C          0.8181404755       -1.0868488611       -1.0981914165
 H         -3.7278605810        1.0616680577        1.4498451036
 H         -2.7195712806        1.9323485106        0.4602002854
 H         -2.0900629248        0.9608054408        1.6639935835
 H         -3.6900437328       -0.0893772671       -0.6222069216
 H         -2.8280191394       -1.0531068781        0.5483719815
 H         -1.5120319628        0.8132319804       -1.4976754615
 H         -1.6748825102       -0.9075412892       -1.6749655855
 H         -0.3772704204       -0.9562579806        0.6824555706
 H         -0.2512178594        1.5683168106        0.8993522321
 H          0.6366718409        1.6283195544       -0.5942556770
 H          1.5691521425        0.1754169250        1.9381396027
 H          2.2056064611        1.6954224308        1.3646313321
 H          3.6939684727       -0.2251901321        0.6977125507
 H          3.0616702232        0.5961907321       -0.7057860474
 H          1.9807281538       -2.0180186496        0.4750449361
 H          2.8556786417       -1.8645685453       -1.0262339351
 H          0.3829317140       -2.0302493549       -1.4491833398
 H          1.0006759268       -0.4963842719       -2.0019253430
  27
        -28.81771187
 N         -3.7167764697        0.2623384510       -0.3615710411
 C         -2.2348919692        0.1551063785       -0.5326946157
 C         -1.4986439672        0.1157352029        0.8008334133
 C          0.0387354483        0.0043594970        0.7008439021
 C          0.6950307460        1.2179229361        0.0004491363
 C          2.2310584203        1.1163683344        0.0315423991
 C          2.7172725021       -0.2010344327       -0.6003744535
 C          2.0489758986       -1.4223292117        0.0576208015
 C          0.5138756096       -1.3040878831        0.0260774944
 H         -3.9709379163        1.1171772467        0.1543645680
 H         -4.0891810211       -0.5392253813        0.1681116387
 H         -4.2075010263        0.2898595219       -1.2680706911
 H         -1.8822995267        0.9997693379       -1.1343590855
 H         -2.0064479122       -0.7427090628       -1.1173122280
 H         -1.8835225435       -0.7226318486        1.3909912436
 H         -1.7589806256        1.0120571544        1.3734515662
 H          0.4375842569       -0.0138444205        1.7284870767
 H          0.3508996154        2.1534801215        0.4570903034
 H          0.3586061791        1.2563326172       -1.0400189294
 H          2.5794209780        1.1728694029        1.0690745936
 H          2.6850092170        1.9783021017       -0.4744012001
 H          3.8103453491       -0.2787808861       -0.5349930558
 H          2.4908560654       -0.1958166604       -1.6726239123
 H          2.3869867327       -1.5065414598        1.0967029477
 H          2.3745984211       -2.3505076261       -0.4297018087
 H          0.0401738406       -2.1716358861        0.5006487081
 H          0.1742551557       -1.3147752549       -1.0140307868
  27
        -28.81765680
 N         -2.6403414861       -0.6597653637       -1.0050470461
 C         -2.4419972411        0.6507086131       -0.3149871602
 C         -1.5886915127        0.5843413436        0.9522841066
 C         -0.0754645664        0.3138933549        0.7671175403
 C          0.5951316686        1.2222075524       -0.2894185124
 C          2.1228959228        1.0287370446       -0.2986031510
 C          2.4999029489       -0.4470960811       -0.5274310527
 C          1.8076093987       -1.3729682477        0.4903261129
 C          0.2814734272       -1.1646284987        0.4856956988
 H         -2.9534788798       -1.3853556101       -0.3436896336
 H         -1.7802243755       -0.9932545721       -1.4615726534
 H         -3.3579194403       -0.5907061826       -1.7427515666
 H         -3.4335750746        1.0480274015       -0.0603323273
 H         -2.0208985585        1.3756193710       -1.0200102236
 H         -2.0055048584       -0.1756527955        1.6212547004
 H         -1.7015969830        1.5316232503        1.4939451311
 H          0.4131564952        0.5526627068        1.7271908467
 H          0.3294204712        2.2714283789       -0.1140449435
 H          0.1959470360        0.9756472811       -1.2780001874
 H          2.5395384030        1.3673041433        0.6568138052
 H          2.5874955469        1.6683276943       -1.0602498127
 H          3.5892605123       -0.5763722485       -0.4854826073
 H          2.2124575380       -0.7428551559       -1.5427412254
 H          2.2008826673       -1.1707254488        1.4930755901
 H          2.0548459067       -2.4232852910        0.2884643927
 H         -0.2109260960       -1.8223055588        1.2117539842
 H         -0.1104716566       -1.4559876689       -0.4911987696
  27
        -28.81753444
 N         -3.2767700203       -0.0919464890        0.4455155659
 C         -2.3425080268       -0.2717946707       -0.7066139055
 C         -1.0817599844        0.5828391856       -0.6031255496
 C         -0.1772268899        0.2666714366        0.6053769110
 C          0.9782384103        1.2969515633        0.7466804693
 C          2.0748142828        1.1087754733       -0.3174739586
 C          2.6222900278       -0.3282553326       -0.3158248593
 C          1.4911077046       -1.3551265237       -0.4897748878
 C          0.4009904020       -1.1740013062        0.5815950502
 H         -3.5403558053        0.8978048849        0.5573947353
 H         -2.8580264421       -0.4054177111        1.3329984830
 H         -4.1479709825       -0.6280952404        0.3147225606
 H         -2.8805544297       -0.0291725448       -1.6319171848
 H         -2.0791814554       -1.3308932749       -0.7982368031
 H         -1.3757402352        1.6368996327       -0.5585580955
 H         -0.4926525358        0.4888780503       -1.5204149612
 H         -0.8059835405        0.3561866578        1.5064621500
 H          1.4256464503        1.2121394428        1.7435181273
 H          0.5731864333        2.3146642072        0.6956616763
 H          2.8895341396        1.8277431905       -0.1583522900
 H          1.6739267427        1.3467299337       -1.3086045453
 H          3.1446237575       -0.5180316705        0.6286655946
 H          3.3820292251       -0.4536538549       -1.0986622935
 H          1.8929037783       -2.3766712091       -0.4600000088
 H          1.0511732097       -1.2495779062       -1.4872047607
 H          0.8254203063       -1.4099653714        1.5642427677
 H         -0.4025960171       -1.9040316252        0.4354201361
  27
        -28.81739127
 N         -2.9919654946        0.6122418370        1.0690378873
 C         -2.7614506014       -0.1981440515       -0.1644848655
 C         -1.5103621602        0.2241427171       -0.9303494260
 C         -0.1773468243       -0.1030175400       -0.1931587001
 C          0.6304917616        1.1697147523        0.1610158675
 C          1.9229575509        0.8289265506        0.9241358140
 C          2.7960322210       -0.1604479687        0.1319226044
 C          2.0071423126       -1.4290617374       -0.2378763465
 C          0.7140525008       -1.0818448836       -0.9974557139
 H         -2.2101247043        0.5259700071        1.7343578943
 H         -3.8487959407        0.3183426361        1.5620740443
 H         -3.0976564386        1.6116573171        0.8407084306
 H         -3.6457612456       -0.1131493615       -0.8087254018
 H         -2.6934488301       -1.2590404632        0.1025837156
 H         -1.5615145366        1.2987002312       -1.1350681464
 H         -1.5003700545       -0.2500627134       -1.9185938781
 H         -0.4260726017       -0.6039786810        0.7550438694
 H          0.0087253249        1.8676043996        0.7339998399
 H          0.8817822251        1.6960907350       -0.7655198305
 H          1.6680091943        0.3911427618        1.8958297198
 H          2.4867859355        1.7419479674        1.1554270159
 H          3.6992087034       -0.4191261458        0.6998175895
 H          3.1569532237        0.3236432634       -0.7827191540
 H          1.7565543848       -1.9809573930        0.6751343652
 H          2.6300967233       -2.1128062855       -0.8291315868
 H          0.1507953389       -1.9889700765       -1.2473251846
 H          0.9668248415       -0.6208297595       -1.9578179243
  27
        -28.81647649
 N         -2.5628973917        1.6124032544       -0.1656083911
 C         -2.5291474753        0.1372426513        0.0745255308
 C         -1.2730628336       -0.5420632820       -0.4910251616
 C         -0.1767824615       -0.8432439367        0.5537511903
 C          0.4315514350        0.4284831166        1.2022035968
 C          1.3495637382        1.2007903493        0.2382749307
 C          2.4640051948        0.2978240350       -0.3159700410
 C          1.8800568442       -0.9548016056       -0.9900942232
 C          0.9558331265       -1.7304153357       -0.0337321344
 H         -1.7554601955        2.0926457068        0.2558607859
 H         -3.4143557476        2.0411325447        0.2277492936
 H         -2.5548590916        1.8223410555       -1.1745844442
 H         -3.4321333208       -0.2989260682       -0.3728724947
 H         -2.6173213438       -0.0660865281        1.1481113223
 H         -0.8567867744        0.0769216238       -1.2902440496
 H         -1.5510148205       -1.4833179738       -0.9798868280
 H         -0.6629301939       -1.4220982220        1.3577299771
 H          1.0088676860        0.1412723378        2.0886506124
 H         -0.3655800354        1.0771554895        1.5808457856
 H          1.7803734648        2.0786224081        0.7377706021
 H          0.7603544696        1.6031262060       -0.5924333706
 H          3.1282747805       -0.0046316132        0.5014668907
 H          3.1002197112        0.8539053794       -1.0171997429
 H          2.6870424753       -1.6046949917       -1.3540079409
 H          1.3224973660       -0.6618932653       -1.8862561065
 H          1.5537198700       -2.1504610633        0.7831511935
 H          0.5191580606       -2.5950353964       -0.5478275540
  27
        -28.81639494
 N         -3.5137475692       -0.0227968235       -0.7640916515
 C         -2.3879203002       -0.3332090141        0.1695291173
 C         -1.1410953809        0.4934916222       -0.1235747615
 C          0.0092816842        0.2924145538        0.8859616764
 C          1.1336902724        1.3493839173        0.7039589569
 C          1.9889940541        1.0932372992       -0.5497805582
 C          2.5764074992       -0.3277444207       -0.5492516606
 C          1.4705193701       -1.3862298135       -0.4049413483
 C          0.6153166926       -1.1368584481        0.8504452097
 H         -3.7871857211        0.9685102147       -0.7003276059
 H         -4.3507679416       -0.5882494951       -0.5567800375
 H         -3.2485692656       -0.2079605946       -1.7424361062
 H         -2.1582919721       -1.4025265248        0.1116078336
 H         -2.7168431471       -0.1565054865        1.2002450830
 H         -1.4195380822        1.5523645235       -0.1442934693
 H         -0.7856942917        0.2742850898       -1.1338572396
 H         -0.4245632778        0.4426466870        1.8892313766
 H          1.7816309894        1.3512909245        1.5878568111
 H          0.6942280649        2.3532077438        0.6638898978
 H          2.7914995465        1.8390134833       -0.6253337190
 H          1.3792057812        1.2364840638       -1.4482977864
 H          3.2868564223       -0.4278595982        0.2790859160
 H          3.1643733329       -0.5038368160       -1.4597310175
 H          1.9063636599       -2.3937953667       -0.3781949420
 H          0.8334440805       -1.3736283937       -1.2956799509
 H          1.2360575007       -1.2896665778        1.7408046881
 H         -0.1796615316       -1.8870980452        0.9242423568
  27
        -28.81631328
 N         -2.8372204987        1.1678191600        0.5739440887
 C         -2.6225510445        0.0673979604       -0.4122145107
 C         -1.1602627635       -0.1481837387       -0.7994885988
 C         -0.2426087656       -0.5951849623        0.3696365685
 C          0.4614116531        0.5942580962        1.0807806732
 C          1.6154426286        1.1913666154        0.2528658922
 C          2.6309565307        0.1158266871       -0.1657683370
 C          1.9391588756       -1.0305398932       -0.9198605360
 C          0.8108437833       -1.6478366154       -0.0760836575
 H         -3.8413273629        1.3285328122        0.7454150077
 H         -2.4398698035        2.0560051599        0.2342239941
 H         -2.4083449421        0.9521335555        1.4855593987
 H         -3.2164084748        0.2831525176       -1.3095970064
 H         -3.0382974523       -0.8622292355       -0.0058799246
 H         -0.7607205927        0.7658583527       -1.2481650339
 H         -1.1108227857       -0.8997722178       -1.5959658171
 H         -0.8946949435       -1.0893116607        1.1098748224
 H          0.8494643656        0.2625825151        2.0504842494
 H         -0.2695366963        1.3760297314        1.3126307780
 H          2.1174500084        1.9885252870        0.8172158582
 H          1.2171008912        1.6831780067       -0.6409063538
 H          3.1289699285       -0.2822795284        0.7255391684
 H          3.4318443089        0.5538235525       -0.7761319108
 H          2.6689843439       -1.7977163991       -1.2108539400
 H          1.5275477518       -0.6505823088       -1.8613624697
 H          1.2454353355       -2.1274007440        0.8084366669
 H          0.3185255430       -2.4556604293       -0.6306962127
  27
        -28.81601422
 N         -3.3062414616        1.2647415126        0.0930880041
 C         -2.5924831938        0.0323126105        0.5457590139
 C         -1.5609546631       -0.4661950733       -0.4812862279
 C         -0.1085954796       -0.4977495214        0.0393831121
 C          0.4458724119        0.9158916859        0.3401317453
 C          1.8846779480        0.8580304061        0.8841557387
 C          2.8192260215        0.1116415970       -0.0841154921
 C          2.2799133058       -1.2928112587       -0.4074624129
 C          0.8386077751       -1.2284328858       -0.9444046385
 H         -3.8221862623        1.0916076454       -0.7818188613
 H         -2.6491963096        2.0387878133       -0.0830594786
 H         -3.9894222122        1.5907094758        0.7933764550
 H         -3.3342411214       -0.7478074970        0.7611807344
 H         -2.1054668062        0.2290845961        1.5079441278
 H         -1.6000485491        0.1683568512       -1.3720629946
 H         -1.8370490270       -1.4656827759       -0.8365523853
 H         -0.1015956759       -1.0645713578        0.9830047695
 H         -0.2120805172        1.4480339485        1.0364385675
 H          0.4282762920        1.5038386247       -0.5831310156
 H          1.8865142247        0.3497464528        1.8550553983
 H          2.2631122636        1.8688099197        1.0843180613
 H          3.8343634881        0.0498785430        0.3292145194
 H          2.9176677652        0.6868097207       -1.0118132239
 H          2.3038785794       -1.9094791176        0.4982068705
 H          2.9364265177       -1.8032207983       -1.1241433043
 H          0.4578216387       -2.2336302914       -1.1616136744
 H          0.8277041983       -0.6998383086       -1.9030767416
  27
        -28.81124513
 N         -2.3234531438        1.2901931192       -0.8791845237
 C         -1.8815169677       -0.1244886447       -0.6781333392
 C         -1.5472710421       -0.4465331931        0.7830513296
 C         -0.0608399042       -0.3601655377        1.2148828578
 C          0.6149338371        1.0189002843        0.9709485950
 C          1.2336584206        1.1809323183       -0.4298258367
 C          2.1839748076        0.0221207261       -0.7650960863
 C          1.4599482924       -1.3297090580       -0.6749695877
 C          0.8187725692       -1.5428508117        0.7092274760
 H         -3.1848319277        1.4845219415       -0.3482007815
 H         -2.5272268411        1.4905230029       -1.8700840673
 H         -1.6149224106        1.9679564524       -0.5648834226
 H         -1.0328150949       -0.3484141228       -1.3285942189
 H         -2.6880719014       -0.7794782790       -1.0342247929
 H         -1.9113093424       -1.4520376623        1.0267956497
 H         -2.1412376690        0.2223111247        1.4157604870
 H         -0.0833619201       -0.4778379643        2.3151947850
 H          1.3999797630        1.1768777315        1.7198036459
 H         -0.1153177403        1.8147159804        1.1564459890
 H          1.7657122732        2.1390266955       -0.5020065916
 H          0.4473553624        1.2381580710       -1.1881914846
 H          3.0279331309        0.0300627408       -0.0659450289
 H          2.6283040564        0.1594770532       -1.7598744037
 H          2.1636980727       -2.1448359006       -0.8920820019
 H          0.7033472699       -1.4028166356       -1.4618654070
 H          1.6145520958       -1.7420312200        1.4365865100
 H          0.2117238193       -2.4558706777        0.6962511610
  27
        -28.81085474
 N         -3.0343811263       -0.2271995800        1.0430155204
 C         -2.6456185689       -0.1939907988       -0.3990598559
 C         -1.4703848420        0.7367149961       -0.6844378861
 C         -0.1365563726        0.2959110957       -0.0507339581
 C          0.9763268281        1.3504343988       -0.2762724149
 C          2.2697830098        1.0155597140        0.5078962309
 C          2.4838548055       -0.5085008921        0.6836150944
 C          1.8669520595       -1.3024228463       -0.4812647763
 C          0.3323821837       -1.1004284884       -0.5632676536
 H         -3.2664843943        0.7165840163        1.3851873737
 H         -2.2771435407       -0.5958836081        1.6363111953
 H         -3.8621765096       -0.8221190357        1.1994418285
 H         -3.5184096929        0.1146463323       -0.9885099892
 H         -2.4128003037       -1.2102178788       -0.7356656407
 H         -1.7208694195        1.7430003769       -0.3327711352
 H         -1.3243509176        0.8364016073       -1.7653428707
 H         -0.2861558993        0.2177288066        1.0361871766
 H          0.6084998711        2.3482898614       -0.0114489663
 H          1.1945554332        1.3981976349       -1.3480121215
 H          2.2423981729        1.5031819017        1.4894958715
 H          3.1358877379        1.4510270738       -0.0041826764
 H          2.0225959990       -0.8382728737        1.6210232684
 H          3.5512352721       -0.7410085736        0.7884874237
 H          2.1135101069       -2.3683201330       -0.3958569328
 H          2.3302351399       -0.9732615167       -1.4180524808
 H         -0.1726421226       -1.8901018880        0.0036007892
 H         -0.0045237321       -1.2274411489       -1.5973403499
  27
        -28.81077531
 N         -3.2378404099        0.4752784929        0.7797566708
 C         -2.4849233023        0.6765098472       -0.4950309067
 C         -1.3977197228       -0.3701236523       -0.7232663918
 C         -0.2269890928       -0.3069266911        0.2773573156
 C          0.5186636862        1.0604626050        0.2164792666
 C          1.9697169650        0.9537704022        0.7191074843
 C          2.8139766755        0.0056200901       -0.1682054424
 C          1.9629274088       -1.1151467063       -0.8152265019
 C          0.7607624365       -1.4997780993        0.0669932009
 H         -2.6280276478        0.5665929237        1.6048622310
 H         -3.6664805025       -0.4612544009        0.8122167503
 H         -3.9983567174        1.1639027417        0.8844132663
 H         -2.0502672690        1.6818824702       -0.5059724996
 H         -3.1999242250        0.6602017729       -1.3276239535
 H         -0.9934649027       -0.2768384761       -1.7368363287
 H         -1.8528986391       -1.3651448871       -0.6836923769
 H         -0.6528795888       -0.4039051419        1.2875109494
 H         -0.0292409499        1.8256649556        0.7786210477
 H          0.5253572578        1.4096267933       -0.8206503041
 H          1.9605999733        0.5787630716        1.7487221624
 H          2.4334787732        1.9464264424        0.7764673840
 H          3.6199742046       -0.4403791474        0.4262322163
 H          3.3204834469        0.5854830096       -0.9489354024
 H          2.5821291512       -1.9957461015       -1.0285807974
 H          1.5955345432       -0.7784156252       -1.7907611279
 H          1.1318165223       -1.8499779476        1.0366888608
 H          0.2268000200       -2.3539616060       -0.3640307674
  27
        -28.81055054
 N         -3.0919452335       -0.9974474664       -0.0268262948
 C         -2.6579450520        0.3700689463        0.3916583077
 C         -1.4663419663        0.9150424378       -0.4003672616
 C         -0.0792431408        0.4742551115        0.1152950034
 C          1.0551757812        1.3081550078       -0.5339114093
 C          2.4336326329        1.0313279921        0.1159929785
 C          2.5689754444       -0.4240112607        0.6287567683
 C          1.7022149794       -1.3924296970       -0.1946653612
 C          0.1953346401       -1.0478362831       -0.0809710420
 H         -3.9348724808       -1.2987405719        0.4851852947
 H         -2.3655323680       -1.7061103921        0.1455681369
 H         -3.3210179142       -1.0226467342       -1.0313333262
 H         -2.4292402495        0.3742357763        1.4633905925
 H         -3.5180397534        1.0431215940        0.2773362057
 H         -1.5005765259        2.0109902415       -0.3949276050
 H         -1.5660178083        0.6332795070       -1.4526224057
 H         -0.0459932788        0.6801165072        1.1961004869
 H          0.8126687998        2.3759004506       -0.4858015861
 H          1.0928648961        1.0683671135       -1.6013886139
 H          2.6002167703        1.7340600583        0.9409687445
 H          3.2316688625        1.2420589442       -0.6056466248
 H          2.2572772022       -0.4742181676        1.6779089154
 H          3.6192280700       -0.7422599525        0.6227457659
 H          1.8871815566       -2.4303612488        0.1098210010
 H          2.0120174528       -1.3399278101       -1.2443166313
 H         -0.2421451894       -1.6106078953        0.7504243205
 H         -0.3308928836       -1.3880361921       -0.9785913691
  27
        -28.81047078
 N         -3.1014269760       -0.9915747501       -0.0646834405
 C         -2.6507648479        0.3515392243        0.4115665282
 C         -1.4666449110        0.9234319705       -0.3734888101
 C         -0.0750344863        0.4776968181        0.1244857736
 C          1.0548087617        1.3087188693       -0.5357809325
 C          2.4385564045        1.0288702479        0.1018719827
 C          2.5704771999       -0.4227464853        0.6257202946
 C          1.6989915026       -1.3951313199       -0.1881787628
 C          0.1930138772       -1.0442886748       -0.0778948072
 H         -3.3505357102       -0.9657058873       -1.0642910285
 H         -3.9358438556       -1.3137109691        0.4487444306
 H         -2.3759037177       -1.7116124190        0.0571381659
 H         -2.4054707941        0.3035349171        1.4785474463
 H         -3.5073603812        1.0351684130        0.3427875708
 H         -1.5064427562        2.0187620851       -0.3421848582
 H         -1.5704633969        0.6656754999       -1.4314691950
 H         -0.0289986548        0.6804583148        1.2054367633
 H          0.8149552185        2.3770037576       -0.4867941309
 H          1.0821826513        1.0674419203       -1.6032513987
 H          2.6180723112        1.7374665273        0.9190881416
 H          3.2302683679        1.2285498226       -0.6297916444
 H          2.2615085638       -0.4637027379        1.6760683775
 H          3.6197610340       -0.7442034774        0.6194526556
 H          1.8799689040       -2.4309505171        0.1256924836
 H          2.0089623742       -1.3534670235       -1.2382739229
 H         -0.2511116389       -1.6085566634        0.7490442101
 H         -0.3312241040       -1.3773026149       -0.9793173816
  27
        -28.81034142
 N         -3.3421575213       -0.0464553238        0.6900366946
 C         -2.5207160030        0.8752145679       -0.1521282582
 C         -1.3515077818        0.1760020784       -0.8427851688
 C         -0.2259423031       -0.2917204840        0.1031063031
 C          0.5904302478        0.9049512818        0.6902820717
 C          1.9005956478        1.1571672024       -0.0796091939
 C          2.8526514817       -0.0625158022       -0.0135440523
 C          2.0880348135       -1.4068210171        0.0742681317
 C          0.7099014773       -1.3180282741       -0.6048016039
 H         -3.7052826439       -0.8329137409        0.1320625028
 H         -4.1544302132        0.4378320123        1.1014116409
 H         -2.7976972410       -0.4433800685        1.4692180481
 H         -2.1613613714        1.7054097091        0.4646846299
 H         -3.1765714456        1.3342847922       -0.9030449716
 H         -0.9148462765        0.8298255030       -1.6052669286
 H         -1.7386467762       -0.6891052587       -1.3912386287
 H         -0.7026041545       -0.8182637816        0.9435115084
 H          0.8313401990        0.7091811886        1.7410540610
 H         -0.0225285732        1.8118256065        0.6983881713
 H          2.4019110395        2.0574501317        0.2979612049
 H          1.6622887135        1.3782443983       -1.1257238936
 H          3.5254520195        0.0405359819        0.8458111578
 H          3.5085545686       -0.0692118099       -0.8922968021
 H          1.9463461849       -1.6786687852        1.1263531938
 H          2.6820371049       -2.2214775734       -0.3584690532
 H          0.2336685486       -2.3045772194       -0.6534049602
 H          0.8428613053       -1.0095524492       -1.6464612171
  27
        -28.81032057
 N         -2.9445509968       -0.9469736836       -0.6401368569
 C         -2.6800181876        0.2776893890        0.1751742340
 C         -1.3616726033        0.9784819186       -0.1698788153
 C         -0.1288854927        0.4700361327        0.6080718319
 C          1.1036550763        1.4067129707        0.3853415737
 C          2.0523072481        0.8774337192       -0.7054662734
 C          2.6557960508       -0.4960450650       -0.3209374216
 C          1.7024581123       -1.3320844373        0.5684459685
 C          0.2251283197       -1.0096261083        0.2770822695
 H         -3.8598508291       -1.3629582626       -0.4107208352
 H         -2.2346015394       -1.6769218581       -0.4891467860
 H         -2.9549167182       -0.7263623668       -1.6468057039
 H         -2.7044374008        0.0263397883        1.2415652295
 H         -3.5202720829        0.9680985440        0.0229769270
 H         -1.4651259089        2.0542483686        0.0155938316
 H         -1.1720412179        0.8916206661       -1.2435636694
 H         -0.3866885295        0.5117853519        1.6781866563
 H          1.6644292289        1.5096796517        1.3211093554
 H          0.7647928466        2.4192715345        0.1397690895
 H          2.8476649813        1.6049666294       -0.9116228172
 H          1.4972265259        0.7831819805       -1.6451155287
 H          3.6114790553       -0.3472423661        0.1952725005
 H          2.9040982714       -1.0604506455       -1.2276205771
 H          1.9086722255       -1.1211093175        1.6238607945
 H          1.8968748747       -2.4046944764        0.4442784453
 H         -0.4312644224       -1.6948204098        0.8256460666
 H          0.0256301587       -1.1883092922       -0.7837390396
  27
        -28.81016807
 N         -2.9950568628        0.1820437320        1.1547718099
 C         -2.5777068939        0.7450592690       -0.1646792431
 C         -1.5431181386       -0.1141271578       -0.8871074572
 C         -0.1770323413       -0.2274623505       -0.1801954695
 C          0.5822656376        1.1208754812       -0.1187685806
 C          1.8734823901        1.0292986999        0.7336207628
 C          2.5178025480       -0.3785880755        0.6976264047
 C          2.2345114694       -1.0930617147       -0.6349325475
 C          0.7167449192       -1.3172418531       -0.8521943667
 H         -2.2106897963        0.1433421863        1.8213303471
 H         -3.3615288466       -0.7752774826        1.0489777339
 H         -3.7386907131        0.7479623013        1.5911450864
 H         -2.1983059294        1.7622911711       -0.0223037632
 H         -3.4710557378        0.8570519484       -0.7926081163
 H         -1.3783287388        0.2697371878       -1.8996692977
 H         -1.9555217009       -1.1195384563       -1.0221979033
 H         -0.3562162530       -0.5450614201        0.8573003351
 H         -0.0713970719        1.9121512584        0.2623791410
 H          0.8336170062        1.4213139508       -1.1410195208
 H          1.6512991286        1.3091776044        1.7700892004
 H          2.5995926273        1.7733651943        0.3856867864
 H          2.1194730210       -0.9862203547        1.5176255794
 H          3.5979283817       -0.3161287282        0.8815781156
 H          2.7782094749       -2.0449103040       -0.6867969045
 H          2.6362080605       -0.4861323892       -1.4540151050
 H          0.4313299635       -2.3069076961       -0.4784716932
 H          0.4942868951       -1.3426489497       -1.9241807403
