27
 energy: -28.822138067584 gnorm: 0.000275058266 xtb: 6.5.1 (fef0646)
N            0.83506123772021       -0.30917661926768       -1.77289651393420
C            2.32918235917700       -0.27605083995895       -1.89926382411820
C            2.88919720810393        0.93615235751657       -1.17162953777272
C            4.42818784370379        0.97072757513217       -1.18465780716279
C            4.92267951870924        2.05572214386083       -0.22334494090830
C            6.44755252662108        2.10213778924842       -0.19365608015580
C            7.00037782767115        2.35937603359545       -1.59066733402411
C            6.51367585212104        1.28340803127795       -2.55432499996033
C            4.98703131137138        1.23423868199978       -2.58440062074314
H            0.43226402296708       -1.12129941376464       -2.25682442104901
H            0.43600055060301        0.54988473021370       -2.17419442532288
H            0.57263628850612       -0.34882280927030       -0.77887080340354
H            2.57987574074864       -0.24221338835732       -2.95923260316090
H            2.73118974507811       -1.19537197148030       -1.47149046621565
H            2.55875771624612        0.91638768212872       -0.13026430951174
H            2.51724353083471        1.85383721172432       -1.63163859259742
H            4.80120999185468        0.00308802883574       -0.83330723347877
H            4.54242312682361        1.86250971461835        0.78197258323004
H            4.53946283669837        3.02545489535702       -0.54776507445819
H            6.83290613707200        1.15195905634405        0.18164852491406
H            6.77377517882804        2.88748069426044        0.48853902709596
H            8.08996456808831        2.36564887671126       -1.56347038499233
H            6.66879839865744        3.33936584200529       -1.93964519000682
H            6.89978022619232        0.31174360818424       -2.23929460699910
H            6.89001085984763        1.48248048436424       -3.55829645085974
H            4.67350627323245        0.45253350068038       -3.27979744673022
H            4.60570912252270        2.18997810404040       -2.95052646767428
