  27
        -35.32224395
 N          3.5361715370        0.0829738501       -1.1947294471
 C          2.8073330935        0.5708273930        0.0192951108
 C          3.5383576174        0.1805060236        1.2990412976
 C          1.3713652692        0.1000534920        0.0179282688
 C          1.0685514607       -1.2597893594        0.0274503823
 C         -0.2410222041       -1.7035686537        0.0245960959
 C          0.3291206816        1.0205556882        0.0017959741
 C         -1.0152291824        0.6071545014       -0.0021380376
 C         -1.3084848849       -0.7906247497        0.0104497680
 C         -2.6527055109       -1.2045490904        0.0080920835
 C         -3.6753532929       -0.2750300295       -0.0067859862
 C         -3.3915674216        1.0815995071       -0.0198910780
 C         -2.0819152892        1.5238884137       -0.0176939565
 H          4.4916922741        0.4664265612       -1.2417277738
 H          3.0432344403        0.3533016687       -2.0580514897
 H          3.6139719595       -0.9433133591       -1.1890346718
 H          2.7891936906        1.6723383722       -0.0400456617
 H          3.0246604890        0.5603814476        2.1834958111
 H          4.5581616685        0.5678915044        1.3088378548
 H          3.6001582261       -0.9033474825        1.3943152204
 H          1.8716303636       -1.9771169802        0.0378182030
 H         -0.4539723506       -2.7597577202        0.0333846793
 H          0.5503136940        2.0736623615       -0.0083602823
 H         -2.8794419537       -2.2578261357        0.0180916981
 H         -4.7020149247       -0.6074679435       -0.0081421304
 H         -4.1991233804        1.7972629664       -0.0318545491
 H         -1.8683717840        2.5798202044       -0.0281005201
