  27
        -35.42529765
 N         -3.5252755718        0.1123064906        1.2059927305
 C         -2.8047828584        0.5710522152       -0.0277197822
 C         -3.5399899265        0.1466803566       -1.2937316793
 C         -1.3694282749        0.1009180409       -0.0241401945
 C         -1.0673471342       -1.2597531675       -0.0246115766
 C          0.2387296304       -1.7040004232       -0.0159375042
 C         -0.3306956836        1.0202394697       -0.0150097596
 C          1.0135321279        0.6071239458       -0.0062547468
 C          1.3068098333       -0.7908339171       -0.0063202238
 C          2.6512156061       -1.2044075718        0.0041932950
 C          3.6711068952       -0.2758411875        0.0143213335
 C          3.3868751784        1.0823223471        0.0141109844
 C          2.0801432618        1.5242726343        0.0039345227
 H         -3.6022713393       -0.9102107816        1.2182016403
 H         -4.4741665791        0.5004576797        1.2480552241
 H         -3.0190555780        0.4002976928        2.0504150320
 H         -2.7874299406        1.6729596403        0.0032083871
 H         -4.5555917335        0.5406684637       -1.3154407924
 H         -3.6085316965       -0.9380898096       -1.3554369226
 H         -3.0225889432        0.4952930224       -2.1876432384
 H         -1.8703747514       -1.9755715609       -0.0331572953
 H          0.4506940233       -2.7591247047       -0.0159686590
 H         -0.5519339561        2.0722419952       -0.0133909504
 H          2.8771766087       -2.2567392951        0.0045819497
 H          4.6966380034       -0.6072915414        0.0226676205
 H          4.1935132591        1.7970118116        0.0220680889
 H          1.8657031860        2.5789598431        0.0037442886
  27
        -35.42525678
 N         -3.2682740885        0.8772754473       -1.2206745481
 C         -2.8994016192        0.0303665129       -0.0377936860
 C         -3.3534436660        0.6693976681        1.2692042627
 C         -1.4210763036       -0.2782567027       -0.0263294527
 C         -0.9758323449       -1.6007142148       -0.0417687200
 C          0.3700437539       -1.9029819046       -0.0260655504
 C         -0.4870501635        0.7442951383        0.0082946172
 C          0.8934676056        0.4770853129        0.0254974193
 C          1.3344879255       -0.8813324891        0.0074160792
 C          2.7154047154       -1.1485846777        0.0242544606
 C          3.6296042141       -0.1162390066        0.0579159372
 C          3.2014472073        1.2035490444        0.0759535069
 C          1.8550172520        1.5031736656        0.0602994199
 H         -2.9465565477        0.4423584825       -2.0921340208
 H         -2.8347655160        1.8042962425       -1.1516750071
 H         -4.2841247398        1.0094808425       -1.2800759237
 H         -3.4319990995       -0.9279209637       -0.1535501528
 H         -3.1077523189        0.0395045371        2.1242684134
 H         -4.4289486135        0.8435159973        1.2750369513
 H         -2.8643244235        1.6306417094        1.4182115814
 H         -1.6988715746       -2.3977179596       -0.0658036235
 H          0.6935425266       -2.9293377456       -0.0387263390
 H         -0.8181165463        1.7661031981        0.0253845420
 H          3.0530679761       -2.1704988055        0.0104140686
 H          4.6846612079       -0.3359417596        0.0701823259
 H          3.9267821806        2.0002291677        0.1019813782
 H          1.5286054093        2.5286589070        0.0736968428
