  27
  -35.425297649999997        5.7243331841986059E-002 !gc
 N         -3.5252755718        0.1123064906        1.2059927305
 C         -2.8047828584        0.5710522152       -0.0277197822
 C         -3.5399899265        0.1466803566       -1.2937316793
 C         -1.3694282749        0.1009180409       -0.0241401945
 C         -1.0673471342       -1.2597531675       -0.0246115766
 C          0.2387296304       -1.7040004232       -0.0159375042
 C         -0.3306956836        1.0202394697       -0.0150097596
 C          1.0135321279        0.6071239458       -0.0062547468
 C          1.3068098333       -0.7908339171       -0.0063202238
 C          2.6512156061       -1.2044075718        0.0041932950
 C          3.6711068952       -0.2758411875        0.0143213335
 C          3.3868751784        1.0823223471        0.0141109844
 C          2.0801432618        1.5242726343        0.0039345227
 H         -3.6022713393       -0.9102107816        1.2182016403
 H         -4.4741665791        0.5004576797        1.2480552241
 H         -3.0190555780        0.4002976928        2.0504150320
 H         -2.7874299406        1.6729596403        0.0032083871
 H         -4.5555917335        0.5406684637       -1.3154407924
 H         -3.6085316965       -0.9380898096       -1.3554369226
 H         -3.0225889432        0.4952930224       -2.1876432384
 H         -1.8703747514       -1.9755715609       -0.0331572953
 H          0.4506940233       -2.7591247047       -0.0159686590
 H         -0.5519339561        2.0722419952       -0.0133909504
 H          2.8771766087       -2.2567392951        0.0045819497
 H          4.6966380034       -0.6072915414        0.0226676205
 H          4.1935132591        1.7970118116        0.0220680889
 H          1.8657031860        2.5789598431        0.0037442886
  27
  -35.425297280000002        5.7220923627905450E-002 !gc
 N         -3.5241717693        0.1189582743        1.2072319007
 C         -2.8047927667        0.5709635939       -0.0295923470
 C         -3.5412408092        0.1399828506       -1.2926903569
 C         -1.3694381816        0.1008071857       -0.0246456101
 C         -1.0673056750       -1.2598641703       -0.0261235981
 C          0.2387785510       -1.7040651788       -0.0180008732
 C         -0.3307485865        1.0201498629       -0.0138883516
 C          1.0135052231        0.6070733096       -0.0050513941
 C          1.3068194373       -0.7908764426       -0.0073129890
 C          2.6512215727       -1.2044769529        0.0020447672
 C          3.6711185657       -0.2759466124        0.0135742462
 C          3.3868710440        1.0822104068        0.0160613886
 C          2.0801330373        1.5241885406        0.0069037371
 H         -3.5997714741       -0.9035706257        1.2255218285
 H         -4.4736094495        0.5059823024        1.2470037947
 H         -3.0179284919        0.4124837035        2.0497222268
 H         -2.7873167599        1.6730359379       -0.0046779511
 H         -3.6108071631       -0.9450504136       -1.3482784668
 H         -3.0241940639        0.4831105375       -2.1888699208
 H         -4.5566036632        0.5346069308       -1.3159158741
 H         -1.8702500778       -1.9757619516       -0.0354966580
 H          0.4507793615       -2.7591840123       -0.0196936163
 H         -0.5520310811        2.0721423750       -0.0117520924
 H          2.8771520965       -2.2568184186        0.0002961718
 H          4.6966523331       -0.6074207711        0.0208865648
 H          4.1935117982        1.7968760456        0.0253756059
 H          1.8657209737        2.5788736567        0.0091053370
  27
  -35.425294680000000        5.7063707697431576E-002 !gc
 N         -3.5164101258        0.1285078149        1.2129584460
 C         -2.8048833665        0.5710466295       -0.0317214385
 C         -3.5489981716        0.1298339646       -1.2868462223
 C         -1.3695017086        0.1008916456       -0.0305957589
 C         -1.0673991230       -1.2598210239       -0.0337813949
 C          0.2386509808       -1.7041129679       -0.0242647166
 C         -0.3307931889        1.0201380142       -0.0168519650
 C          1.0134121900        0.6069602873       -0.0064819690
 C          1.3066985960       -0.7909749888       -0.0098548342
 C          2.6510647130       -1.2046080647        0.0029804375
 C          3.6709582610       -0.2761179690        0.0184469223
 C          3.3867376814        1.0820471257        0.0213355148
 C          2.0800316662        1.5240330772        0.0090575463
 H         -4.4657885965        0.5151952516        1.2555211011
 H         -3.0050826398        0.4284359931        2.0501089975
 H         -3.5912939014       -0.8939845026        1.2390248463
 H         -2.7876402256        1.6732861466       -0.0158067703
 H         -3.0356131312        0.4637377829       -2.1885984777
 H         -4.5635588104        0.5264836228       -1.3085149561
 H         -3.6216929856       -0.9554919874       -1.3322860921
 H         -1.8703127380       -1.9757469546       -0.0443461802
 H          0.4506403829       -2.7592285783       -0.0268627443
 H         -0.5520321193        2.0721352328       -0.0125113625
 H          2.8769962495       -2.2569455145        0.0012996691
 H          4.6964504939       -0.6076286908        0.0288267663
 H          4.1933533392        1.7967000680        0.0335396865
 H          1.8655871715        2.5787157466        0.0117096279
  27
  -35.425293680000003        5.7003355114490326E-002 !gc
 N         -3.5400132510        0.0885084015        1.1941439392
 C         -2.8048251062        0.5706935950       -0.0220577000
 C         -3.5244977369        0.1712762509       -1.3049577290
 C         -1.3693120564        0.1012349308       -0.0126926403
 C         -1.0673148353       -1.2594424269       -0.0105691015
 C          0.2387637280       -1.7036894961       -0.0034961188
 C         -0.3305162732        1.0205270720       -0.0095949921
 C          1.0137324941        0.6073926558       -0.0036070121
 C          1.3069193188       -0.7905797147        0.0003915644
 C          2.6513636966       -1.2041030537        0.0059275749
 C          3.6712791805       -0.2755168761        0.0061257568
 C          3.3870995014        1.0826557770        0.0012406214
 C          2.0803348127        1.5246228436       -0.0033570343
 H         -4.4888571142        0.4770026433        1.2327309342
 H         -3.0432427595        0.3589571941        2.0499781567
 H         -3.6189664301       -0.9339989831        1.1851697750
 H         -2.7880434290        1.6717436123        0.0310289339
 H         -3.5878047411       -0.9122221997       -1.3906804013
 H         -2.9985845386        0.5409078309       -2.1853726382
 H         -4.5413147574        0.5620549385       -1.3295029874
 H         -1.8703876653       -1.9751755430       -0.0179417976
 H          0.4507462760       -2.7588069928       -0.0021675063
 H         -0.5516799545        2.0725380947       -0.0137693679
 H          2.8773674615       -2.2564249433        0.0094530251
 H          4.6968467313       -0.6069508152        0.0096830646
 H          4.1937739558        1.7973476556        0.0007526902
 H          1.8658406065        2.5792938971       -0.0073121465
  27
  -35.425293099999998        5.6968379867675611E-002 !gc
 N         -3.5305260481        0.0978797363        1.2016416370
 C         -2.8046084526        0.5710398576       -0.0235391092
 C         -3.5347801994        0.1629898063       -1.2977217867
 C         -1.3694036892        0.1004752669       -0.0205789943
 C         -1.0670733877       -1.2602310777       -0.0187537963
 C          0.2391173928       -1.7041749457       -0.0101442579
 C         -0.3308927084        1.0199444828       -0.0162480550
 C          1.0134420498        0.6071411561       -0.0080671350
 C          1.3069896372       -0.7907604744       -0.0038328411
 C          2.6514662432       -1.2041101034        0.0074662598
 C          3.6712419450       -0.2754059409        0.0139666877
 C          3.3867840333        1.0826955165        0.0089166580
 C          2.0799615088        1.5244212578       -0.0020151210
 H         -3.0263221612        0.3725376311        2.0516527746
 H         -3.6109074177       -0.9245112600        1.1995376481
 H         -4.4785289620        0.4879808857        1.2456828938
 H         -2.7867812252        1.6724851126        0.0214402468
 H         -3.5990793418       -0.9210175723       -1.3755546885
 H         -3.0163657804        0.5266314281       -2.1850004663
 H         -4.5517368875        0.5537187787       -1.3163115995
 H         -1.8698333071       -1.9762736549       -0.0257969001
 H          0.4512992260       -2.7592786596       -0.0076291403
 H         -0.5524881880        2.0719152499       -0.0177855068
 H          2.8775452024       -2.2564183582        0.0117027933
 H          4.6968267938       -0.6066854361        0.0233494618
 H          4.1933038820        1.7975388873        0.0139159306
 H          1.8654106974        2.5790533256       -0.0056484873
  27
  -35.425292740000003        5.6946681888754777E-002 !gc
 N         -3.5191839333        0.1215819935        1.2108542269
 C         -2.8048452065        0.5710194363       -0.0297982974
 C         -3.5462574637        0.1370821503       -1.2889705753
 C         -1.3694730080        0.1008737905       -0.0287205717
 C         -1.0673848116       -1.2598026832       -0.0307267991
 C          0.2386800022       -1.7040608084       -0.0213670854
 C         -0.3307424044        1.0201728098       -0.0172590656
 C          1.0134765508        0.6070366406       -0.0073256846
 C          1.3067455938       -0.7909209733       -0.0088325089
 C          2.6511171996       -1.2045329545        0.0041912855
 C          3.6709931441       -0.2760006742        0.0180382308
 C          3.3867787988        1.0821659718        0.0189894340
 C          2.0800779753        1.5241537474        0.0063982835
 H         -3.0095869387        0.4171500757        2.0505226123
 H         -3.5942180562       -0.9010171276        1.2318176231
 H         -4.4685924510        0.5083441697        1.2537233556
 H         -2.7874124468        1.6731442836       -0.0074873142
 H         -3.0321702424        0.4772912256       -2.1879612717
 H         -4.5612735333        0.5326217214       -1.3096632923
 H         -3.6170781021       -0.9480675155       -1.3412916329
 H         -1.8703767045       -1.9756578610       -0.0404303135
 H          0.4506409630       -2.7591857766       -0.0225085850
 H         -0.5519683556        2.0721715234       -0.0141462986
 H          2.8770552433       -2.2568699311        0.0039191573
 H          4.6964944678       -0.6074810133        0.0285963400
 H          4.1934045903        1.7968300301        0.0299008588
 H          1.8656523809        2.5788430764        0.0072863360
  27
  -35.425286499999999        5.6571893963540149E-002 !gc
 N         -3.5151052538        0.1372956450        1.2141773826
 C         -2.8048535343        0.5709238627       -0.0342904529
 C         -3.5506519565        0.1211457950       -1.2853427943
 C         -1.3695008879        0.1006582142       -0.0311674023
 C         -1.0673404844       -1.2600022540       -0.0362526976
 C          0.2387193616       -1.7042346671       -0.0269063193
 C         -0.3307998895        1.0199202257       -0.0146775368
 C          1.0134241485        0.6067893597       -0.0042625583
 C          1.3067520076       -0.7911407134       -0.0105704525
 C          2.6511464341       -1.2047122741        0.0004056683
 C          3.6709693271       -0.2761789057        0.0171154051
 C          3.3867023386        1.0819623214        0.0233309094
 C          2.0799683195        1.5239163011        0.0127510457
 H         -4.4644263797        0.5241899337        1.2551739612
 H         -3.0029006062        0.4440492108        2.0483247540
 H         -3.5892397531       -0.8849818783        1.2484441895
 H         -2.7874787045        1.6732706318       -0.0263432240
 H         -4.5652575799        0.5172693298       -1.3078912565
 H         -3.6231323481       -0.9645120211       -1.3232617223
 H         -3.0393681586        0.4493400015       -2.1904260766
 H         -1.8702808422       -1.9758737206       -0.0487385854
 H          0.4507358853       -2.7593383507       -0.0316551110
 H         -0.5520197182        2.0719110021       -0.0092947783
 H          2.8771794563       -2.2570168302       -0.0042628418
 H          4.6965057023       -0.6076159683        0.0255928215
 H          4.1932857397        1.7966357225        0.0365183822
 H          1.8654762409        2.5785806489        0.0173486272
  27
  -35.425269919999998        5.5588003763135829E-002 !gc
 N         -3.5545080365        0.0600035546        1.1809283730
 C         -2.8046281365        0.5706003333       -0.0146706559
 C         -3.5089355358        0.2026442233       -1.3152108721
 C         -1.3693188359        0.1006355451       -0.0019741895
 C         -1.0669394769       -1.2598920745        0.0053839377
 C          0.2392856015       -1.7038059658        0.0111197313
 C         -0.3307561364        1.0202375884       -0.0073291973
 C          1.0135889166        0.6074713877       -0.0043022485
 C          1.3071890812       -0.7903824336        0.0061192149
 C          2.6517496241       -1.2035785431        0.0087140843
 C          3.6714478825       -0.2747807865        0.0000136126
 C          3.3868806782        1.0832684539       -0.0110689611
 C          2.0799967100        1.5248700410       -0.0129159615
 H         -3.0668378516        0.3077236950        2.0487396464
 H         -3.6368486574       -0.9617004467        1.1456307897
 H         -4.5028055728        0.4501466867        1.2187018481
 H         -2.7882581507        1.6700128188        0.0656297000
 H         -4.5272926025        0.5892153151       -1.3399568704
 H         -3.5652925862       -0.8784796133       -1.4305659608
 H         -2.9757154944        0.5983775881       -2.1797859496
 H         -1.8697508018       -1.9759224732        0.0030085678
 H          0.4515241788       -2.7588540147        0.0177963804
 H         -0.5523307122        2.0721358561       -0.0157872203
 H          2.8779888136       -2.2558186901        0.0169098814
 H          4.6970999673       -0.6059610148        0.0013404768
 H          4.1933579337        1.7981440111       -0.0186686148
 H          1.8652588455        2.5794601068       -0.0218844748
  27
  -35.425258280000001        5.4907504346644126E-002 !mtd1
 N         -3.2726581957        0.8448882129       -1.2346844553
 C         -2.8995126560        0.0299662940       -0.0309555849
 C         -3.3485651762        0.7041786303        1.2600785845
 C         -1.4211417411       -0.2784726122       -0.0180938260
 C         -0.9757930010       -1.6009570376       -0.0261779850
 C          0.3701288515       -1.9029862652       -0.0112018137
 C         -0.4871568710        0.7444153158        0.0070606443
 C          0.8934250465        0.4774107439        0.0238398494
 C          1.3345262565       -0.8810702932        0.0139513783
 C          2.7154838053       -1.1481580571        0.0297486740
 C          3.6297098166       -0.1156018078        0.0547034484
 C          3.2014978064        1.2042475269        0.0649194166
 C          1.8550195372        1.5037188617        0.0499716338
 H         -4.2883886199        0.9781347788       -1.2922271374
 H         -2.9567734672        0.3852903100       -2.0956360230
 H         -2.8358990350        1.7720111818       -1.1934708039
 H         -3.4327149791       -0.9309808481       -0.1181878502
 H         -4.4248392467        0.8735439430        1.2676447864
 H         -2.8633750303        1.6715727393        1.3785973173
 H         -3.0947792979        0.1000301272        2.1312409176
 H         -1.6987904437       -2.3981705766       -0.0440354458
 H          0.6936669894       -2.9293861489       -0.0180723272
 H         -0.8183973498        1.7663012640        0.0160817547
 H          3.0531798568       -2.1701306841        0.0220361922
 H          4.6848085304       -0.3351837918        0.0661561867
 H          3.9268890062        2.0010663052        0.0843206702
 H          1.5285132112        2.5292311657        0.0576069600
  27
  -35.425256779999998        5.4820419222719817E-002 !mtd5
 N         -3.2682740885        0.8772754473       -1.2206745481
 C         -2.8994016192        0.0303665129       -0.0377936860
 C         -3.3534436660        0.6693976681        1.2692042627
 C         -1.4210763036       -0.2782567027       -0.0263294527
 C         -0.9758323449       -1.6007142148       -0.0417687200
 C          0.3700437539       -1.9029819046       -0.0260655504
 C         -0.4870501635        0.7442951383        0.0082946172
 C          0.8934676056        0.4770853129        0.0254974193
 C          1.3344879255       -0.8813324891        0.0074160792
 C          2.7154047154       -1.1485846777        0.0242544606
 C          3.6296042141       -0.1162390066        0.0579159372
 C          3.2014472073        1.2035490444        0.0759535069
 C          1.8550172520        1.5031736656        0.0602994199
 H         -2.9465565477        0.4423584825       -2.0921340208
 H         -2.8347655160        1.8042962425       -1.1516750071
 H         -4.2841247398        1.0094808425       -1.2800759237
 H         -3.4319990995       -0.9279209637       -0.1535501528
 H         -3.1077523189        0.0395045371        2.1242684134
 H         -4.4289486135        0.8435159973        1.2750369513
 H         -2.8643244235        1.6306417094        1.4182115814
 H         -1.6988715746       -2.3977179596       -0.0658036235
 H          0.6935425266       -2.9293377456       -0.0387263390
 H         -0.8181165463        1.7661031981        0.0253845420
 H          3.0530679761       -2.1704988055        0.0104140686
 H          4.6846612079       -0.3359417596        0.0701823259
 H          3.9267821806        2.0002291677        0.1019813782
 H          1.5286054093        2.5286589070        0.0736968428
  27
  -35.425255980000003        5.4774030313310434E-002 !mtd4
 N         -3.2641657955        0.9211629732       -1.1984737860
 C         -2.8992343097        0.0310572825       -0.0464169869
 C         -3.3585642805        0.6212215329        1.2814568001
 C         -1.4209085753       -0.2775674244       -0.0387197928
 C         -0.9758700951       -1.5999275912       -0.0647501585
 C          0.3699095626       -1.9026186368       -0.0475571087
 C         -0.4867872298        0.7443478368        0.0087517826
 C          0.8936292840        0.4767609011        0.0269840182
 C          1.3344595999       -0.8815266384       -0.0017977759
 C          2.7152643804       -1.1491782600        0.0178407815
 C          3.6295146482       -0.1173239269        0.0634283243
 C          3.2015331503        1.2023574008        0.0910020772
 C          1.8552066940        1.5023473656        0.0736194431
 H         -4.2802206091        1.0501374400       -1.2602403541
 H         -2.9338350356        0.5220728850       -2.0838690169
 H         -2.8369710432        1.8473643326       -1.0904752800
 H         -3.4308042677       -0.9224338550       -0.2004612394
 H         -3.1205455258       -0.0420644610        2.1131278986
 H         -4.4333491265        0.7995744215        1.2877352924
 H         -2.8660102896        1.5737699240        1.4699991069
 H         -1.6990493935       -2.3964936979       -0.0975006267
 H          0.6932344780       -2.9288987047       -0.0681461203
 H         -0.8176501200        1.7659515011        0.0361459247
 H          3.0528228357       -2.1710117822       -0.0028640796
 H          4.6844859382       -0.3373177872        0.0777870527
 H          3.9269080405        1.9986531061        0.1261585818
 H          1.5289049630        2.5277281609        0.0949876930
  27
  -35.425255350000000        5.4737526676646768E-002 !mtd1
 N         -3.2637856753        0.9223989745       -1.1980491411
 C         -2.8992274520        0.0310875409       -0.0468057157
 C         -3.3590359154        0.6198367875        1.2815252585
 C         -1.4209032015       -0.2775350726       -0.0388940508
 C         -0.9758723268       -1.5998924188       -0.0652116429
 C          0.3699025840       -1.9026021343       -0.0479848731
 C         -0.4867756632        0.7443555037        0.0090008196
 C          0.8936368974        0.4767508420        0.0272547698
 C          1.3344597225       -0.8815305778       -0.0019228013
 C          2.7152654441       -1.1491936592        0.0175176592
 C          3.6295224558       -0.1173546751        0.0633211305
 C          3.2015473304        1.2023192312        0.0913382058
 C          1.8552205582        1.5023187795        0.0741760310
 H         -2.8366062271        1.8484061460       -1.0889985517
 H         -4.2798890751        1.0515156419       -1.2599410286
 H         -2.9332500072        0.5241999528       -2.0837639590
 H         -3.4307304277       -0.9222448535       -0.2020733968
 H         -4.4337698179        0.7985344603        1.2874601776
 H         -2.8662857868        1.5719650696        1.4714180964
 H         -3.1216580473       -0.0445275998        2.1125707733
 H         -1.6990492026       -2.3964474971       -0.0982686381
 H          0.6932300805       -2.9288751986       -0.0688594061
 H         -0.8176179714        1.7659582529        0.0366404437
 H          3.0528278518       -2.1710187371       -0.0035621727
 H          4.6844966356       -0.3373439741        0.0774792820
 H          3.9269284275        1.9986016385        0.1266690834
 H          1.5289263739        2.5276923723        0.0959884530
  27
  -35.425254060000000        5.4662857023744113E-002 !gc
 N         -3.2634650244        0.9401041345       -1.1873184338
 C         -2.8991789614        0.0314460830       -0.0496133677
 C         -3.3597665560        0.5998098745        1.2872677482
 C         -1.4208122518       -0.2770268466       -0.0447506950
 C         -0.9758758791       -1.5993209267       -0.0755105561
 C          0.3698366496       -1.9022808935       -0.0576519589
 C         -0.4865966689        0.7445469695        0.0077525465
 C          0.8937616931        0.4767071766        0.0266346807
 C          1.3344636224       -0.8815259651       -0.0063786550
 C          2.7151736987       -1.1494943112        0.0154669579
 C          3.6294458852       -0.1179305758        0.0668539887
 C          3.2016224913        1.2017224598        0.0980694460
 C          1.8553812834        1.5019788155        0.0789287136
 H         -2.9324890034        0.5554632402       -2.0787764860
 H         -2.8367664976        1.8646338590       -1.0641128346
 H         -4.2796025606        1.0698119658       -1.2475795457
 H         -3.4302558750       -0.9195763220       -0.2198431833
 H         -4.4347523075        0.7768333842        1.2960342336
 H         -2.8682067261        1.5496864588        1.4910649373
 H         -3.1213328970       -0.0764879209        2.1083240899
 H         -1.6991106739       -2.3956833158       -0.1121231308
 H          0.6930570721       -2.9285295679       -0.0815529022
 H         -0.8172731847        1.7660715323        0.0393219721
 H          3.0526523005       -2.1712969226       -0.0078221553
 H          4.6843557149       -0.3381608749        0.0830672514
 H          3.9270549307        1.9977616694        0.1377166413
 H          1.5291678478        2.5273239402        0.1035171085
  27
  -35.425254029999998        5.4661121732545122E-002 !gc
 N         -3.2622982915        0.9336779007       -1.1922539778
 C         -2.8991940607        0.0313357472       -0.0491598798
 C         -3.3608483330        0.6072646561        1.2841202821
 C         -1.4208667244       -0.2772903138       -0.0418320679
 C         -0.9758783778       -1.5995955481       -0.0711800797
 C          0.3698645642       -1.9024409706       -0.0535742057
 C         -0.4867020413        0.7443899744        0.0095519641
 C          0.8936802520        0.4766643125        0.0279996118
 C          1.3344551041       -0.8815639514       -0.0040554717
 C          2.7152242013       -1.1493741869        0.0159772373
 C          3.6294766155       -0.1176581335        0.0645775083
 C          3.2015793920        1.2019879373        0.0949558221
 C          1.8552795750        1.5020863510        0.0776329791
 H         -4.2783539302        1.0622102106       -1.2551391183
 H         -2.9292794619        0.5445626500       -2.0810931256
 H         -2.8365326397        1.8591547278       -1.0730122948
 H         -3.4303583807       -0.9205072804       -0.2144581296
 H         -2.8672786770        1.5568500518        1.4844002578
 H         -3.1258719598       -0.0656440622        2.1088817971
 H         -4.4354237899        0.7871552452        1.2898217311
 H         -1.6990645361       -2.3960450796       -0.1067960672
 H          0.6931691625       -2.9286784880       -0.0768901872
 H         -0.8174385727        1.7659395811        0.0398495263
 H          3.0527704431       -2.1711650190       -0.0068601496
 H          4.6844406319       -0.3377535296        0.0789684626
 H          3.9270037849        1.9981509643        0.1322165945
 H          1.5290050117        2.5274342745        0.1012578811
  27
  -35.425245080000003        5.4145878530546615E-002 !mtd1
 N         -3.5560645887        0.0565294973        1.1801645162
 C         -2.8044005824        0.5705632987       -0.0129223858
 C         -3.5082204092        0.2081796786       -1.3152996011
 C         -1.3692834475        0.0998801456       -0.0014870893
 C         -1.0666748981       -1.2605735934        0.0066618046
 C          0.2396771707       -1.7042534989        0.0119959323
 C         -0.3308042728        1.0195553584       -0.0094245108
 C          1.0135903715        0.6071234574       -0.0057711635
 C          1.3074806077       -0.7906536663        0.0063570971
 C          2.6521869209       -1.2034306064        0.0100902854
 C          3.6715643827       -0.2742858905        0.0011699682
 C          3.3866833437        1.0836763111       -0.0116674250
 C          2.0796888170        1.5248754847       -0.0150714975
 H         -3.6501227473       -0.9638344471        1.1360809990
 H         -4.4997746691        0.4570960070        1.2250019344
 H         -3.0629104087        0.2913366999        2.0484178594
 H         -2.7868299228        1.6696478272        0.0722185808
 H         -2.9754745340        0.6085057014       -2.1779644657
 H         -4.5270754463        0.5935097056       -1.3382803049
 H         -3.5630652583       -0.8724988564       -1.4358823882
 H         -1.8693846047       -1.9767262544        0.0046858615
 H          0.4520954268       -2.7592583638        0.0191582196
 H         -0.5525250037        2.0713980012       -0.0194084524
 H          2.8789056741       -2.2555485196        0.0194078737
 H          4.6972752384       -0.6051497316        0.0036371898
 H          4.1929916054        1.7987406620       -0.0191885194
 H          1.8646519222        2.5793956392       -0.0251333683
  27
  -35.425266540000003        5.5389537368967470E-002 !md2
 N         -3.2814929083        0.8198983998       -1.2398570638
 C         -2.8995656446        0.0298377882       -0.0227072935
 C         -3.3378354707        0.7307850386        1.2578682339
 C         -1.4211855000       -0.2786072619       -0.0154969082
 C         -0.9759192791       -1.6011072160       -0.0182864401
 C          0.3700664357       -1.9030231485       -0.0032826436
 C         -0.4871603597        0.7444281504        0.0003416633
 C          0.8934048842        0.4775920756        0.0177022933
 C          1.3344660750       -0.8809429671        0.0165723235
 C          2.7154092426       -1.1477989536        0.0365020781
 C          3.6295366579       -0.1150269181        0.0573674699
 C          3.2013157056        1.2048635976        0.0585759644
 C          1.8548620169        1.5041543312        0.0389936110
 H         -2.9776204018        0.3397072961       -2.0937750421
 H         -2.8386552789        1.7448427338       -1.2236480458
 H         -4.2970564010        0.9580833494       -1.2891397717
 H         -3.4338494025       -0.9324213842       -0.0857297800
 H         -2.8509344547        1.6998831266        1.3529759402
 H         -3.0775164872        0.1440113707        2.1388904676
 H         -4.4139017363        0.9012648129        1.2708228934
 H         -1.6990923331       -2.3982851408       -0.0320954907
 H          0.6936625808       -2.9294419446       -0.0055674240
 H         -0.8182493949        1.7664096755        0.0028073685
 H          3.0531289954       -2.1697709931        0.0362396891
 H          4.6846510305       -0.3344427466        0.0730665974
 H          3.9265736735        2.0018997034        0.0746167745
 H          1.5282704743        2.5296791185        0.0393274284
  27
  -35.425236949999999        5.3682052855568416E-002 !gc
 N         -3.2821460519        0.7735180241       -1.2618803221
 C         -2.8997025874        0.0298395739       -0.0158126777
 C         -3.3387578078        0.7781490864        1.2374904549
 C         -1.4211915552       -0.2779793776        0.0000191509
 C         -0.9758120449       -1.6004430051        0.0087166785
 C          0.3701490662       -1.9023556926        0.0205977359
 C         -0.4870979990        0.7451752938        0.0030035439
 C          0.8935616057        0.4782714399        0.0182744271
 C          1.3346164617       -0.8802512770        0.0263392866
 C          2.7155898721       -1.1473025744        0.0409959894
 C          3.6299260826       -0.1145867594        0.0490288288
 C          3.2018570876        1.2053289439        0.0427260207
 C          1.8553579665        1.5047047266        0.0274245444
 H         -2.8443791293        1.7008008319       -1.2762658718
 H         -4.2983695104        0.9037445198       -1.3187009749
 H         -2.9729510845        0.2654979420       -2.0978198991
 H         -3.4334894080       -0.9343716346       -0.0418944278
 H         -2.8596733780        1.7542376735        1.2920566338
 H         -3.0711317932        0.2292421026        2.1404618436
 H         -4.4160762926        0.9409795835        1.2473861825
 H         -1.6986589054       -2.3979884216        0.0057814778
 H          0.6936780186       -2.9287734722        0.0262174713
 H         -0.8182260405        1.7671501794       -0.0054959195
 H          3.0532227277       -2.1693107959        0.0463067729
 H          4.6850377906       -0.3341309993        0.0606625858
 H          3.9273378490        2.0022753570        0.0500845734
 H          1.5290416651        2.5302993766        0.0231041286
  27
  -35.425235729999997        5.3612794164387488E-002 !mtd1
 N         -3.2847675181        0.7539160056       -1.2686675290
 C         -2.8997611500        0.0298193731       -0.0120576375
 C         -3.3362542141        0.7980612922        1.2301131818
 C         -1.4211853777       -0.2776578916        0.0049323445
 C         -0.9758387350       -1.6000878510        0.0184175008
 C          0.3701205502       -1.9020353343        0.0296415785
 C         -0.4870377338        0.7454643870        0.0023053012
 C          0.8936195092        0.4785334116        0.0176176670
 C          1.3346450620       -0.8799701929        0.0303064169
 C          2.7156217387       -1.1470830541        0.0437333050
 C          3.6300051634       -0.1143824513        0.0466339618
 C          3.2020038915        1.2055262572        0.0363095016
 C          1.8555032915        1.5049171747        0.0216905215
 H         -2.8460802464        1.6803959433       -1.2983613736
 H         -4.3009981247        0.8839654364       -1.3258756441
 H         -2.9772018874        0.2325625193       -2.0968809479
 H         -3.4334749584       -0.9347502089       -0.0218965148
 H         -3.0658932550        0.2642296529        2.1412384065
 H         -4.4136265365        0.9602032751        1.2401162463
 H         -2.8580479092        1.7754270485        1.2675867555
 H         -1.6986737277       -2.3976525699        0.0197872506
 H          0.6935978768       -2.9284446927        0.0388004395
 H         -0.8180713940        1.7674296903       -0.0107916715
 H          3.0532412684       -2.1690754870        0.0521987882
 H          4.6851164399       -0.3339693510        0.0573611168
 H          3.9275468398        2.0024431306        0.0397987654
 H          1.5292531649        2.5305137945        0.0139495183
