  27
        -35.42529765
 N         -3.5252755718        0.1123064906        1.2059927305
 C         -2.8047828584        0.5710522152       -0.0277197822
 C         -3.5399899265        0.1466803566       -1.2937316793
 C         -1.3694282749        0.1009180409       -0.0241401945
 C         -1.0673471342       -1.2597531675       -0.0246115766
 C          0.2387296304       -1.7040004232       -0.0159375042
 C         -0.3306956836        1.0202394697       -0.0150097596
 C          1.0135321279        0.6071239458       -0.0062547468
 C          1.3068098333       -0.7908339171       -0.0063202238
 C          2.6512156061       -1.2044075718        0.0041932950
 C          3.6711068952       -0.2758411875        0.0143213335
 C          3.3868751784        1.0823223471        0.0141109844
 C          2.0801432618        1.5242726343        0.0039345227
 H         -3.6022713393       -0.9102107816        1.2182016403
 H         -4.4741665791        0.5004576797        1.2480552241
 H         -3.0190555780        0.4002976928        2.0504150320
 H         -2.7874299406        1.6729596403        0.0032083871
 H         -4.5555917335        0.5406684637       -1.3154407924
 H         -3.6085316965       -0.9380898096       -1.3554369226
 H         -3.0225889432        0.4952930224       -2.1876432384
 H         -1.8703747514       -1.9755715609       -0.0331572953
 H          0.4506940233       -2.7591247047       -0.0159686590
 H         -0.5519339561        2.0722419952       -0.0133909504
 H          2.8771766087       -2.2567392951        0.0045819497
 H          4.6966380034       -0.6072915414        0.0226676205
 H          4.1935132591        1.7970118116        0.0220680889
 H          1.8657031860        2.5789598431        0.0037442886
