27
 energy: -35.427002194366 gnorm: 0.000472070378 xtb: 6.5.1 (fef0646)
N            3.30573259891994        0.67679952312038       -0.99748964400337
C            2.42527002506367       -0.06481493402643       -0.04365073513407
C            1.00332608169424        0.46970871172616       -0.16542658064482
C            2.95902463964518        0.07572957349843        1.36364438752730
C            3.29600651448570       -1.07986263232045        2.09439122206444
C            3.76912058510506       -0.98473743057422        3.37252807587899
C            3.10838203110240        1.30948491981719        1.94565218299723
C            3.59621248243123        1.44133813219619        3.26048271857867
C            3.93604443067368        0.27203628707720        3.99045915965393
C            4.42429785630198        0.40581923765390        5.30665206899490
C            4.56695266592719        1.64127653167639        5.87415566325061
C            4.22834192044179        2.79810099476171        5.15279219734537
C            3.75472765049187        2.70180773063040        3.87460955295086
H            4.26075861168327        0.30174822218686       -0.97925128525256
H            3.34303172409608        1.66964536286739       -0.73760415980675
H            2.93481294895169        0.60496247597310       -1.95239091129632
H            2.43995891815874       -1.12094358469158       -0.32296843766075
H            0.95829897347831        1.52736084458337        0.07595374781014
H            0.35471254803992       -0.05379918310571        0.53031512093298
H            0.61300226674381        0.31333383747194       -1.16686441786159
H            3.17204564232895       -2.05146974719143        1.64089329833234
H            4.02410220175263       -1.87304356055989        3.93155878496917
H            2.84230064841476        2.21826660694048        1.42665118322678
H            4.68345743628944       -0.48547537341185        5.86019867716185
H            4.94065461735215        1.73747643738923        6.88310887470624
H            4.34603605179188        3.76411440080674        5.62120880364672
H            3.49325792863440        3.59306661550460        3.32330045163185
