  37
        -58.21615840
 N         -2.6293880798        1.0899909155       -1.6076443534
 C         -3.7102105280        1.7748918674       -0.8592593453
 C         -3.6761715299        1.3964007675        0.6135464972
 O         -2.3968584710        1.6794803824        1.1877750241
 C         -1.4774587156        0.6286181133        1.1448167425
 C         -0.1587843672        0.9014824328        0.6927198417
 C          0.2278336909        2.2112952412        0.3111951294
 C          1.4728079827        2.4683908775       -0.1673097974
 C          0.7727564152       -0.1542177964        0.5718240110
 C          0.4106403173       -1.4734259953        0.9339807205
 C         -0.8854911350       -1.7063139246        1.4139439906
 C         -1.7984611530       -0.6878590786        1.5141371283
 C          1.3720206540       -2.5127508553        0.8000409245
 C          2.6198571878       -2.2612639311        0.3276558701
 C          3.0140600284       -0.9456372904       -0.0531218979
 C          4.2889893349       -0.6593961133       -0.5478324042
 C          4.6334377845        0.6278531811       -0.9101801941
 C          3.7257713617        1.6615070545       -0.7923919572
 C          2.4373408663        1.4289097668       -0.3028769627
 C          2.0790380241        0.1110583571        0.0721347494
 Cl        -2.8726117320       -2.3610895088       -1.4073165692
 H         -1.7205639799        1.2997640251       -1.1702009869
 H         -2.5852265426        1.3746609878       -2.6002041237
 H         -2.7444839614        0.0591457928       -1.5704088255
 H         -4.6861313277        1.5413850376       -1.3018754496
 H         -3.5819127226        2.8594074144       -0.9555546346
 H         -3.9081754279        0.3359244535        0.7439680246
 H         -4.4207850577        1.9574165455        1.1899553482
 H         -0.4914475062        3.0064445357        0.4212487538
 H          1.7495206656        3.4706981548       -0.4492823352
 H         -1.1593156378       -2.7071108077        1.7048132863
 H         -2.7759347811       -0.8900261691        1.9151592779
 H          1.0908983298       -3.5141400350        1.0813748650
 H          3.3348461436       -3.0615321005        0.2323877433
 H          5.0044305241       -1.4592539665       -0.6445234209
 H          5.6230018957        0.8279480878       -1.2899214398
 H          4.0041981329        2.6623746102       -1.0781148098
