  23
        -23.49646318
 N         -3.1081560684       -0.8418810740        0.2625680987
 C         -2.6189089554        0.4383746021       -0.3318537268
 C         -1.2407269446        0.8541037639        0.1777192772
 C         -0.1111298287       -0.0803100747       -0.2636562891
 C          1.2755143075        0.3925798654        0.1835919682
 C          2.4094863540       -0.5360644197       -0.2605004310
 C          3.7878365949       -0.0486751823        0.1655375046
 H         -2.4991035451       -1.6347924343        0.0151404306
 H         -4.0582125085       -1.0731032058       -0.0650901295
 H         -3.1436360718       -0.7837518863        1.2907186480
 H         -3.3523718990        1.2260627673       -0.1165608975
 H         -2.5989335870        0.3458563949       -1.4240202684
 H         -1.2609378769        0.9106759346        1.2713322455
 H         -1.0126720579        1.8723609660       -0.1590555116
 H         -0.1269137349       -0.1812319449       -1.3542594411
 H         -0.2925306277       -1.0891864473        0.1207213041
 H          1.2935495192        0.4965315838        1.2739953715
 H          1.4591943525        1.4013334327       -0.2022628466
 H          2.3761628087       -0.6512568497       -1.3506604517
 H          2.2299663122       -1.5422020043        0.1372693938
 H          4.5795026520       -0.7256797299       -0.1611007465
 H          3.8599524916        0.0380726402        1.2502863573
 H          4.0070775161        0.9345640699       -0.2527670276
