16
 energy: -24.380829481499 gnorm: 0.000605854336 xtb: 6.5.1 (fef0646)
N            2.11356186868596        0.00104679727159        0.35536272205411
C            0.70705295817183       -0.00597021587300        0.33245278822458
C            0.01354689676298       -1.18656496068700        0.09135314544254
C           -1.36566215250711       -1.17386922140247       -0.00042688749882
C           -2.06598528075258        0.01135771661591        0.14733418498401
C           -1.37700624681480        1.18860118838724        0.38636602506503
C            0.00183187416284        1.18351339256558        0.47972501386609
Cl           3.21312530815927        0.61536667821338       -2.36990858576995
H            2.52387431772134       -0.89601887151514        0.57907206299059
H            2.68186461253159        0.33680616063208       -1.17653068595954
H            2.51043752546598        0.75249691716901        0.90346771367681
H            0.56036233337682       -2.11087549940083       -0.02732825664559
H           -1.89605506975557       -2.09563558113687       -0.18740023096238
H           -3.14282011931874        0.01791277301102        0.07586014949370
H           -1.91559928091017        2.11732794293059        0.50119414185179
H            0.54077045502001        2.10186478322165        0.66261669918749
