  18
        -22.14667290
 N         -0.5505799714       -1.2261979223        0.0001897760
 C          0.3536677869       -0.0851352236        0.0000736835
 C          1.8251830678       -0.4832323655       -0.0001055856
 C          2.7693365700        0.7191991634        0.0004170730
 C          4.2358878265        0.3153985433       -0.0004084472
 Cl        -3.4704197394        0.3754437647       -0.0000998074
 H         -0.3580956679       -1.8077885800        0.8081215461
 H         -0.3597944992       -1.8096438892       -0.8074142528
 H         -2.3000121829       -0.2738581037        0.0000399891
 H          0.1335299119        0.5450198164        0.8712585026
 H          0.1334821119        0.5443887340       -0.8705193905
 H          2.0330894840       -1.1166102004       -0.8699754399
 H          2.0331647412       -1.1174530784        0.8694810164
 H          2.5515957222        1.3507194644        0.8715352386
 H          2.5509916886        1.3519628561       -0.8694946907
 H          4.4802510499       -0.2861069471        0.8769017552
 H          4.9005636450        1.1817890555        0.0002386427
 H          4.4797057326       -0.2843273483       -0.8790221023
  18
        -22.14627320
 N         -0.2789243620       -0.6055455124        0.5891206112
 C          0.3169243500       -0.0477806546       -0.6156635667
 C          1.8212361745       -0.2854917254       -0.7223707021
 C          2.6264038871        0.4411982902        0.3542612008
 C          4.1265384167        0.2373406397        0.2023752853
 Cl        -3.4774499363        0.1380131551        0.0331866709
 H          0.1279131891       -0.1742442790        1.4115395778
 H         -0.0500982005       -1.5913161400        0.6530907606
 H         -2.1937207491       -0.1633860571        0.2619735353
 H          0.1023692844        1.0278276430       -0.6530174258
 H         -0.2009623203       -0.4742762688       -1.4843180869
 H          2.1813148306        0.0249601916       -1.7110284440
 H          2.0254375680       -1.3610590517       -0.6670062220
 H          2.3029152666        0.1041511211        1.3470090280
 H          2.3859779462        1.5117677265        0.3254434675
 H          4.4789289404        0.6020884947       -0.7640412434
 H          4.3891210762       -0.8202739835        0.2615441676
 H          4.6926985785        0.7598538759        0.9763126813
  18
        -22.14590420
 N         -0.5495490281       -1.3450745044        0.0098266047
 C          0.4965755711       -0.3481736246        0.1892676577
 C          1.8909860624       -0.9549422373        0.3023197275
 C          2.9890320188        0.0798607054        0.5632349078
 C          3.1896873635        1.0499516221       -0.5917361977
 Cl        -3.2001587839        0.6624400100       -0.1709364957
 H         -0.5322360256       -1.9984126980        0.7854564563
 H         -0.3493570375       -1.8976425422       -0.8165189502
 H         -2.1389104969       -0.1499111407       -0.0987789572
 H          0.2715572388        0.2470395732        1.0834484544
 H          0.4537980720        0.3612446871       -0.6452602776
 H          2.1193920503       -1.5111780456       -0.6138842346
 H          1.8852043780       -1.7080677687        1.1000554216
 H          3.9359381752       -0.4339897750        0.7786439762
 H          2.7516695494        0.6344506641        1.4801642453
 H          3.4202331911        0.5191116757       -1.5170305944
 H          4.0079697386        1.7479283003       -0.4023576687
 H          2.2945908093        1.6456411175       -0.7763168904
  18
        -22.14579619
 N         -0.8445044804       -1.8422566767        0.1234023225
 C          0.3679578888       -1.3284484014        0.7503593442
 C          1.1608221769       -0.4106401905       -0.1737056179
 C          2.4104526721        0.1709613217        0.4872093072
 C          3.1905438538        1.0911100420       -0.4393648863
 Cl        -2.4982285457        1.0155129846       -0.2943234063
 H         -1.3063072949       -2.5116928904        0.7303486357
 H         -0.6031566395       -2.3472971840       -0.7223831077
 H         -1.8440218794       -0.1397705637       -0.1263624644
 H          1.0052057917       -2.1573482741        1.0867250175
 H          0.0905447712       -0.7811164991        1.6592122923
 H          0.5147120977        0.4027989408       -0.5223274924
 H          1.4412333862       -0.9578376831       -1.0811938016
 H          3.0522455443       -0.6490366628        0.8347012980
 H          2.1208931139        0.7098467333        1.3985630399
 H          4.0806895185        1.5010644135        0.0424986607
 H          2.5778767328        1.9327255812       -0.7669365826
 H          3.5170447689        0.5631057755       -1.3369518884
  18
        -22.14549341
 N         -0.5374294515       -1.6164139699       -0.5996746658
 C          0.3281420375       -1.6279429502        0.5735065724
 C          1.1275747883       -0.3375622805        0.7402421952
 C          2.1344682869       -0.0987867544       -0.3838757458
 C          2.9510474138        1.1685689919       -0.1791863463
 Cl        -2.4023268198        1.0748881941       -0.0156208190
 H         -1.0471208509       -2.4907989446       -0.6750859800
 H          0.0211582994       -1.5485618726       -1.4432199738
 H         -1.6614773354       -0.0131454976       -0.2571631883
 H          1.0137794520       -2.4846428935        0.5273771841
 H         -0.2962956609       -1.7943647231        1.4606457023
 H          1.6556289590       -0.3430824654        1.7018245657
 H          0.4385875699        0.5129560670        0.7960728513
 H          1.6076263543       -0.0509687953       -1.3450768321
 H          2.7992552212       -0.9682617889       -0.4662584963
 H          2.3071979619        2.0483278023       -0.1273213291
 H          3.6657713395        1.3321861000       -0.9884019927
 H          3.5156941907        1.1284086823        0.7538734659
  18
        -22.14547819
 N         -0.5293896368       -1.6088522299       -0.5960940752
 C          0.3260257308       -1.6038615854        0.5845249393
 C          1.1300931327       -0.3143782111        0.7353664781
 C          2.1599482519       -0.1091253377       -0.3745603843
 C          2.9789517980        1.1592215069       -0.1863788688
 Cl        -2.4277622550        1.0608472788       -0.0206634173
 H         -1.0351478804       -2.4859660882       -0.6663860469
 H          0.0359718903       -1.5475948072       -1.4355315729
 H         -1.6732480827       -0.0184889983       -0.2590954193
 H          1.0080249731       -2.4643244574        0.5598481658
 H         -0.3073595106       -1.7517042945        1.4686046950
 H          1.6397316372       -0.2994735620        1.7067409490
 H          0.4453096624        0.5410629501        0.7572696796
 H          1.6525325628       -0.0838095587       -1.3469857088
 H          2.8217975627       -0.9834803858       -0.4214089643
 H          3.5222644858        1.1419303034        0.7600179253
 H          2.3392706223        2.0433175345       -0.1732716259
 H          3.7126586883        1.2967296577       -0.9834199280
  18
        -22.14540746
 N         -0.1839773211       -0.7579960302        0.6031509168
 C          0.4597342597       -0.4028145505       -0.6522202284
 C          1.8961545428       -0.9072091925       -0.7699626183
 C          2.8363847844       -0.3590446231        0.3058247401
 C          2.9796013722        1.1550649146        0.2675032991
 Cl        -3.2081301605        0.5219029178        0.0515755632
 H          0.3164175509       -0.3431930243        1.3812889344
 H         -0.1248056722       -1.7609118450        0.7400027667
 H         -1.9947522573        0.0050130154        0.2789243469
 H          0.4260144550        0.6871907576       -0.7715183139
 H         -0.1510503485       -0.7946713233       -1.4757922402
 H          2.2964989796       -0.6537926634       -1.7593853497
 H          1.8905140337       -2.0036974908       -0.7323492136
 H          3.8265073480       -0.8233339495        0.1982697430
 H          2.4867288191       -0.6764161405        1.2961465098
 H          3.3215727631        1.4940338267       -0.7119069096
 H          3.6961467177        1.5172836099        1.0077774653
 H          2.0302131576        1.6536107241        0.4681103785
  18
        -22.14503953
 N         -0.7104321899       -1.7544691547       -0.3159693805
 C          0.2751534749       -1.7572832805        0.7585639683
 C          1.5739623728       -1.0527552219        0.3750282979
 C          1.3700411383        0.4161014901        0.0099978094
 C          2.6703898599        1.1223214801       -0.3428575283
 Cl        -2.0543419281        1.2906443506       -0.1649511921
 H         -1.4775088391       -2.3836171733       -0.0982194713
 H         -0.2862311591       -2.1142513930       -1.1636543712
 H         -1.5287660642        0.0618177399       -0.2249392646
 H          0.4846361801       -2.7895096030        1.0729053418
 H         -0.1650288906       -1.2634873579        1.6331017484
 H          2.0361543999       -1.5751910078       -0.4703608308
 H          2.3016635391       -1.1268146628        1.1929300011
 H          0.8735008701        0.9313484163        0.8424135895
 H          0.6662358818        0.4860426944       -0.8287824892
 H          3.3734196427        1.0957831278        0.4915563966
 H          2.5101891815        2.1704919411       -0.6037881343
 H          3.1613808248        0.6441896460       -1.1922008022
  18
        -22.14497925
 N         -0.7455553474       -1.8404847609       -0.1349582616
 C          0.5844052684       -1.3073501343       -0.4090084812
 C          1.1348403480       -0.4865406558        0.7527442205
 C          2.5280610747        0.0914698137        0.4899609963
 C          2.5465502348        1.1382035600       -0.6143725116
 Cl        -2.3958397038        1.0470830801       -0.0033688917
 H         -1.0468554841       -2.4567922503       -0.8827779703
 H         -0.7199299768       -2.4076907971        0.7053104875
 H         -1.7437999997       -0.1202123792       -0.0580676249
 H          0.5308145856       -0.6864385416       -1.3115286927
 H          1.2799405368       -2.1214109348       -0.6497782140
 H          1.1482016196       -1.1130556158        1.6528878809
 H          0.4373206179        0.3268682342        0.9830040513
 H          3.2177317094       -0.7260055637        0.2430653286
 H          2.9256030397        0.5295411146        1.4156413420
 H          2.2449659325        0.7160709406       -1.5740500308
 H          3.5395839531        1.5716859613       -0.7507354374
 H          1.8598628609        1.9569277274       -0.3926219327
  18
        -22.14497129
 N         -0.7518841815       -1.8467404297        0.1379074341
 C          0.5785885173       -1.3153378278        0.4129048656
 C          1.1342543686       -0.5024764796       -0.7519547467
 C          2.5207164922        0.0883376039       -0.4819809284
 C          2.5197178741        1.1511237714        0.6071157170
 Cl        -2.3763323297        1.0551121193       -0.0000092350
 H         -1.0569283843       -2.4586458837        0.8878224652
 H         -0.7253775379       -2.4179908681       -0.6995644649
 H         -1.7353383434       -0.1181385136        0.0572760001
 H          1.2721458662       -2.1300112335        0.6609577294
 H          0.5235117405       -0.6895507348        1.3109341853
 H          0.4335663677        0.3035197463       -0.9968127742
 H          1.1602458360       -1.1380163410       -1.6458230003
 H          2.9258952139        0.5157945314       -1.4094534889
 H          3.2127054580       -0.7208512455       -0.2156148804
 H          1.8306838694        1.9622376064        0.3652806850
 H          3.5083804726        1.5928012767        0.7487925463
 H          2.2093081058        0.7413025749        1.5692375680
  18
        -22.14481030
 N         -0.5502926941       -1.7199176205       -0.1396713653
 C          0.6185263895       -0.9486224807       -0.5479666589
 C          1.0899911314        0.0143435168        0.5368876077
 C          2.2410990208        0.9213045315        0.0936392831
 C          3.5283148389        0.1633380890       -0.1956116283
 Cl        -2.7814705483        0.7365841776        0.1181431560
 H         -0.3384262798       -2.2373570272        0.7063542544
 H         -0.7873597068       -2.4123318685       -0.8428767266
 H         -1.8932259966       -0.2588039488        0.0129467559
 H          0.3678439137       -0.3832036212       -1.4544770357
 H          1.4348142826       -1.6229496090       -0.8348393748
 H          1.3898363267       -0.5566161938        1.4229073750
 H          0.2365975380        0.6206817846        0.8644925660
 H          2.4288112410        1.6815359266        0.8642608467
 H          1.9327642357        1.4874442065       -0.7946629531
 H          3.8504216459       -0.4127140495        0.6736156051
 H          4.3466691773        0.8344653019       -0.4649123280
 H          3.4037372159       -0.5398994814       -1.0202899622
  18
        -22.14451745
 N         -0.6568843330       -1.7325182266        0.1794591945
 C          0.6193513546       -1.7765806881       -0.5238310839
 C          1.7672782900       -1.1866947477        0.2920794563
 C          1.5520223327        0.2774827326        0.6779941917
 C          1.5356109062        1.2193071440       -0.5167788635
 Cl        -1.8857863906        1.3545721665       -0.0360276113
 H         -0.5495725981       -2.1538849451        1.0954954374
 H         -1.3492430448       -2.2948630131       -0.3069099598
 H         -1.4016654173        0.1100171765        0.0482273582
 H          0.5143604310       -1.2313790787       -1.4697241477
 H          0.8541243056       -2.8116598867       -0.8072264321
 H          2.7089097435       -1.2797294297       -0.2628545198
 H          1.9026835329       -1.7915885287        1.1974484826
 H          2.3348056109        0.5929429150        1.3815993900
 H          0.6142597508        0.3678997261        1.2402054518
 H          0.7192922099        0.9860584951       -1.2016265952
 H          2.4637016569        1.1500183692       -1.0866037164
 H          1.4137582430        2.2614902356       -0.2141134022
  18
        -22.14432832
 N         -0.1700539315       -1.3804157723       -0.6180744198
 C          0.5962129172       -1.2350357788        0.6133925694
 C          1.0361004007        0.2033744340        0.8793720337
 C          1.9325457893        0.7901883914       -0.2128589019
 C          3.2493776506        0.0463581611       -0.3767512435
 Cl        -2.6890403628        0.7202035228       -0.0618857216
 H         -0.4411420292       -2.3485027828       -0.7574573001
 H          0.4060642090       -1.1373596545       -1.4162899794
 H         -1.6840192058       -0.1326481942       -0.2933760182
 H          1.4709244109       -1.8981418536        0.5919972959
 H         -0.0203543692       -1.5930032691        1.4479897330
 H          1.5589194202        0.2590679301        1.8421897036
 H          0.1434406907        0.8297637594        0.9984740497
 H          2.1341778169        1.8477331714        0.0071345976
 H          1.3885227579        0.8032314983       -1.1654984710
 H          3.8064172810        0.0199502787        0.5614124977
 H          3.8924213224        0.5127862920       -1.1261564824
 H          3.0908770135       -0.9874452124       -0.6870172347
  18
        -22.14389395
 N         -0.1240085365       -0.8384016067        0.4665702828
 C          0.4299043199       -0.3402343772       -0.7843286268
 C          1.8987818526       -0.7223611342       -1.0062393341
 C          2.8995995668        0.3228186199       -0.5027291126
 C          2.8417321743        0.5689208570        0.9969794188
 Cl        -3.1918043059        0.4408468477        0.2710515412
 H          0.4309254302       -0.5166364463        1.2505654265
 H         -0.0584835186       -1.8501988342        0.4859217745
 H         -1.9608378936       -0.0775732446        0.3548813038
 H          0.3118988115        0.7500534148       -0.8253025050
 H         -0.1970819456       -0.7213934323       -1.6014791933
 H          2.0755265000       -0.9047270742       -2.0746689532
 H          2.0946651485       -1.6839936988       -0.5180875541
 H          2.7340890101        1.2666796468       -1.0385185808
 H          3.9169773568        0.0157467218       -0.7819053181
 H          2.9518943561       -0.3623721130        1.5552739098
 H          1.8939123771        1.0204826819        1.2928198721
 H          3.6326908376        1.2443553578        1.3303748844
  18
        -22.14343700
 N         -0.0198922136       -0.2391714179        0.5587764882
 C          0.3720516315       -0.1197008719       -0.8363871195
 C          1.8471086203       -0.4105799274       -1.1122088783
 C          2.8235204394        0.5507789910       -0.4140406632
 C          3.2160665612        0.1168329351        0.9918380357
 Cl        -3.3239540728        0.0544011759        0.2586147752
 H          0.4213237487        0.4879230456        1.1100628913
 H          0.3131517887       -1.1219906211        0.9300785225
 H         -1.9969820974       -0.0637339878        0.3854234730
 H          0.1160855527        0.8876638910       -1.1894065537
 H         -0.2617458160       -0.7956341683       -1.4249977378
 H          2.0152251487       -0.3841437941       -2.1973203815
 H          2.0799614662       -1.4397126051       -0.8150595225
 H          2.3881737386        1.5581678615       -0.3962203110
 H          3.7358448108        0.6522744166       -1.0186265736
 H          3.9207639039        0.8131147776        1.4517120259
 H          3.6910969301       -0.8657097983        0.9813042199
 H          2.3557046194        0.0454026177        1.6565870306
  18
        -22.14318340
 N         -0.1099256020       -1.3928932650        0.4334142260
 C          0.5274840545       -1.0782148515       -0.8399710994
 C          1.0460501244        0.3635879214       -0.9123582434
 C          2.5101356313        0.5244533899       -0.4908424181
 C          2.7853398329        0.1493146947        0.9570737113
 Cl        -2.7243107337        0.6612626998        0.2834331052
 H          0.5283824198       -1.2245491903        1.2015078884
 H         -0.3542547768       -2.3769502499        0.4800576115
 H         -1.6788803263       -0.1713041500        0.3495698571
 H         -0.2157824777       -1.2506156014       -1.6308683076
 H          1.3446459317       -1.7800599093       -1.0496804218
 H          0.4117387523        0.9986094168       -0.2838691398
 H          0.9189025564        0.7526164509       -1.9317225853
 H          2.8258994442        1.5627160429       -0.6636290850
 H          3.1442378948       -0.0764416761       -1.1555909435
 H          2.1306687746        0.6956463725        1.6382848133
 H          3.8149410653        0.3699787435        1.2470522213
 H          2.6280705887       -0.9158113531        1.1322215126
  18
        -22.14291861
 N         -0.2108793588       -1.5725039967        0.6263269843
 C          0.4113578300       -1.7112244924       -0.6844892301
 C          1.1163932310       -0.4465226308       -1.1762075440
 C          2.2152295177        0.0701581342       -0.2343533424
 C          1.6956462353        0.9972176580        0.8562271843
 Cl        -2.0859701253        1.1372076459        0.1780086698
 H          0.5074755666       -1.5046297773        1.3386306399
 H         -0.7393669404       -2.4078686801        0.8576335356
 H         -1.3419388143        0.0404067793        0.3641130945
 H         -0.3629690308       -2.0017353689       -1.4076889632
 H          1.1234764683       -2.5465109881       -0.6676364162
 H          0.3781762373        0.3482901473       -1.3319668884
 H          1.5389296281       -0.6391869299       -2.1718443185
 H          2.9813495284        0.6024179911       -0.8157545073
 H          2.7434489260       -0.7842915232        0.2075577310
 H          1.2230319538        1.8824084313        0.4267814673
 H          2.4952779738        1.3425309447        1.5149365996
 H          0.9465861352        0.5135098963        1.4826253621
  18
        -22.14238265
 N         -0.2713297520       -1.6590949362       -0.4440530308
 C          0.3283004708       -1.6216522144        0.8840318625
 C          1.6811380575       -0.9123796173        0.9301182755
 C          1.6270149886        0.5618420654        0.5119478151
 C          1.5461743727        0.7662462483       -0.9936456641
 Cl        -1.9466226406        1.2312382488       -0.3003791264
 H         -1.0486103670       -2.3132165847       -0.4683429759
 H          0.4069615690       -2.0172623154       -1.1068055529
 H         -1.2932345101        0.0665817966       -0.3607380310
 H          0.4311490209       -2.6451598773        1.2720768052
 H         -0.3698559490       -1.1193746016        1.5643542206
 H          2.3927470730       -1.4421926228        0.2868192897
 H          2.0946558181       -0.9941194924        1.9444952859
 H          2.5125939777        1.0871086342        0.8963222967
 H          0.7755894911        1.0456353127        1.0072175057
 H          2.4099879099        0.3292784940       -1.4977580120
 H          1.5118983136        1.8243148592       -1.2617620549
 H          0.6588077338        0.2968139794       -1.4176842010
