  18
        -22.14667290
 N         -0.5505799714       -1.2261979223        0.0001897760
 C          0.3536677869       -0.0851352236        0.0000736835
 C          1.8251830678       -0.4832323655       -0.0001055856
 C          2.7693365700        0.7191991634        0.0004170730
 C          4.2358878265        0.3153985433       -0.0004084472
 Cl        -3.4704197394        0.3754437647       -0.0000998074
 H         -0.3580956679       -1.8077885800        0.8081215461
 H         -0.3597944992       -1.8096438892       -0.8074142528
 H         -2.3000121829       -0.2738581037        0.0000399891
 H          0.1335299119        0.5450198164        0.8712585026
 H          0.1334821119        0.5443887340       -0.8705193905
 H          2.0330894840       -1.1166102004       -0.8699754399
 H          2.0331647412       -1.1174530784        0.8694810164
 H          2.5515957222        1.3507194644        0.8715352386
 H          2.5509916886        1.3519628561       -0.8694946907
 H          4.4802510499       -0.2861069471        0.8769017552
 H          4.9005636450        1.1817890555        0.0002386427
 H          4.4797057326       -0.2843273483       -0.8790221023
