18
 energy: -22.152222466364 gnorm: 0.000497184495 xtb: 6.5.1 (fef0646)
N            1.11669452591302        0.25983807402321       -0.39896175756235
C            2.57562214094903        0.35399876919754       -0.35288546368326
C            3.02377182237572        0.83515117661533        1.02328724282570
C            4.54462956513808        0.86036519624003        1.15288499606016
C            4.97721528111092        1.34137823381639        2.53233120167316
Cl           0.15514984747539       -1.63110986802876        1.62525207846801
H            0.79572683087877       -0.06630416132127       -1.30372226285579
H            0.69245388622972        1.16144842071131       -0.20581498772460
H            0.61699666615444       -0.74551800737035        0.68113991907533
H            2.96921490713877        1.02763212246051       -1.12792060020088
H            2.97367878788463       -0.64623949879551       -0.53945050982954
H            2.60241881756835        0.17005806954892        1.77748907310479
H            2.62855474046661        1.83809797994907        1.20202229076292
H            4.96569778674367        1.51826485648093        0.38840948791616
H            4.93680681811684       -0.14373565228300        0.97890153551192
H            4.61458560801274        2.35043000965980        2.71676277805002
H            6.06127181331244        1.34561511060278        2.61400818517134
H            4.57610015453068        0.68748916849297        3.30316679323696
