  16
        -21.07070978
 N          0.3436958964       -1.6980314622        0.0010125389
 C          1.4942361678       -0.7561855566        0.0050315515
 C          1.4094145362        0.3495187831        1.0857623698
 C          1.7494341210        1.3961451898       -0.0017762260
 C          1.4239536195        0.3413461197       -1.0854377698
 Cl        -2.5263446465        0.2675766335       -0.0017421056
 H          0.3504531640       -2.3003278977        0.8385279707
 H          0.3579184318       -2.3029336079       -0.8354505948
 H         -0.5489062640       -1.1713526221       -0.0035094092
 H          2.4645800630       -1.2806431052        0.0133946256
 H          2.1526882162        0.2597356819        1.8900798162
 H          0.3994730547        0.4523620803        1.5024907365
 H          2.8035336919        1.7063922801        0.0041004420
 H          1.0913019724        2.2767087419       -0.0096744554
 H          2.1780444710        0.2454121515       -1.8790183980
 H          0.4198711154        0.4407593947       -1.5163945917
