  16
        -21.15191909
 N          0.3659026011       -1.7152085852       -0.0000333676
 C          1.5023590245       -0.7463281205       -0.0000945091
 C          1.4065792822        0.3528990067        1.0848016374
 C          1.7253202184        1.4080992463        0.0000472483
 C          1.4063448703        0.3530885238       -1.0848004059
 Cl        -2.5226610428        0.2610910450        0.0000297726
 H          0.3889197854       -2.3140718308        0.8351437418
 H          0.3888863165       -2.3142102473       -0.8351035833
 H         -0.5312348546       -1.2029839783       -0.0000367797
 H          2.4824490670       -1.2513774354       -0.0002489175
 H          2.1546463706        0.2717177180        1.8846026214
 H          0.3983693058        0.4399362923        1.5066527208
 H          2.7743761549        1.7319381194       -0.0000253122
 H          1.0562498094        2.2795943191        0.0001819053
 H          2.1542491027        0.2720616411       -1.8847841061
 H          0.3980622567        0.4402102124       -1.5064173144
