16
 energy: -21.158245971854 gnorm: 0.000450668882 xtb: 6.5.1 (fef0646)
N            1.19490699307966       -0.00305215809223       -0.39554592832947
C            2.65899942715078        0.16848313035309       -0.39411190782340
C            3.44156744716479       -0.93613367636738        0.32414516570735
C            4.23692075886093        0.14555218723872        1.07289630287340
C            3.19579606278445        1.18263380313487        0.62183087282858
Cl           0.11971237782921       -0.63911047918552        2.39959284184089
H            0.91612754921097       -0.79741653368886       -0.97660127124820
H            0.72125276627850        0.84484793992840       -0.71635602638199
H            0.85517415198973       -0.20344939193152        0.58156752613173
H            3.00642770881649        0.35261210302238       -1.41090339082743
H            4.01145634592610       -1.62221939572113       -0.29544779808458
H            2.79771833025000       -1.49661174394730        0.99782434446491
H            5.22082663199112        0.31964872261853        0.64549158622420
H            4.33316422711592        0.00587320390308        2.14590806371838
H            3.57834695559909        2.12013428904514        0.22899097636284
H            2.46548226595250        1.38071799968979        1.40261864254300
