26
 energy: -37.935532944536 gnorm: 0.000349657288 xtb: 6.5.1 (fef0646)
N            1.03528101486435       -1.09425813456474        0.40556931760332
C            2.48662464806557       -1.23061377273343        0.29166930034567
C            2.92718567920726       -0.97388902544915       -1.15235594411410
C            4.42674488496867       -0.97244905951691       -1.24403193663031
C            5.13071618786884       -2.13837176255137       -1.49697285130623
C            6.51542300860681       -2.15203072620812       -1.53999080842040
C            7.22520505646258       -0.97750241744547       -1.32301000625099
O            8.58375523894033       -0.86872896411759       -1.33756094502707
C            9.34774375016394       -2.02269156309244       -1.58491466084558
C            6.52244191705005        0.20142350766644       -1.06809287516205
C            5.14557362624801        0.19895164150044       -1.02818581596886
Cl           0.26025453891096        1.61543443525197       -0.40324439419903
H            0.72455463454860       -1.24651794146539        1.35883319805513
H            0.56239473421117       -1.75472542327167       -0.20303255485012
H            0.62600426888804        0.34693176903427       -0.02337001673100
H            2.83840942325020       -2.22221090933979        0.61034405086097
H            2.94157784838209       -0.48354589815026        0.94591306657399
H            2.52911404471953       -0.00929534389818       -1.46682696841980
H            2.51082020729233       -1.74868599722655       -1.79967158840590
H            4.59418582463094       -3.06061792034955       -1.67110180435944
H            7.02403532136988       -3.08128845271030       -1.74382632474753
H           10.38768559180295       -1.70223352426180       -1.54483972973981
H            9.13716910443536       -2.44123144713689       -2.57468360824906
H            9.17717413659604       -2.78994755543486       -0.82227868862511
H            7.08505718796455        1.10704002707128       -0.90567145284219
H            4.61480812055086        1.11873445839987       -0.83222595854438
