19
 energy: -27.578243266394 gnorm: 0.000439120241 xtb: 6.5.1 (fef0646)
N            1.81165057393101        0.38667437055730       -1.00778755177040
C            2.69047728532524        0.06144684666098        0.13723495123940
C            3.13468375758417       -1.37754690556588        0.11861475964385
C            4.46728196930234       -1.69960735002007        0.34156970041305
C            4.87895746937997       -3.02112031444965        0.34957398800707
C            3.96179972685060       -4.03355470695993        0.12496166760778
C            2.63167468014037       -3.71840066453418       -0.10051125501322
C            2.21619126477632       -2.39820815634676       -0.09990387477971
Cl          -1.04037255532945       -0.69169391566914       -0.71221267827836
H            1.64913780784283        1.39474348511542       -1.06410399121150
H            0.86495040232207       -0.05714493708656       -0.90328410243803
H            2.21667947920602        0.05188966659243       -1.88558261372619
H            2.13399984601948        0.25234997764328        1.05722781854412
H            3.56800960279147        0.70875341044312        0.11298658001349
H            5.18882681807661       -0.91614491890634        0.51740634952281
H            5.91590677261107       -3.26258157299060        0.52846824103289
H            4.27996286771947       -5.06549082138990        0.12787709448108
H            1.91126843396270       -4.50488862832607       -0.27323318670993
H            1.17375379748712       -2.16731486476704       -0.26183189657846
