22
 energy: -30.705861984965 gnorm: 0.000341266224 xtb: 6.5.1 (fef0646)
N            3.00718165031150        0.94355702985355        0.38561948328533
C            2.27940482109201       -0.30142183943362        0.10803085906988
C            0.79405728885911       -0.07598412140670        0.38172126648661
C            2.81110635492297       -1.47500946017901        0.90376632152917
C            3.27111323004247       -2.61452618065835        0.25730045977854
C            3.76259226677983       -3.68719046291392        0.98060850811931
C            3.80396207721972       -3.63151657604238        2.36285192187422
C            3.35009226501730       -2.49898122103131        3.01724460098869
C            2.85745595102821       -1.42911160023813        2.29253421516387
Cl           1.99221948972976        3.12409035764414       -1.27806012691791
H            3.99785229929877        0.83523003065419        0.19479727674052
H            2.89166559559651        1.21737163165575        1.35615728561021
H            2.46321862837060        2.09147548713550       -0.49402636340909
H            2.41393534005239       -0.50634435191668       -0.95966799351425
H            0.62703033759246        0.15265152400384        1.43140886638118
H            0.22983814882046       -0.96952722906678        0.12976200762179
H            0.43403574413011        0.75453972703140       -0.21808772601217
H            3.24097327240773       -2.66206661907100       -0.82203094833039
H            4.11525178672448       -4.56724711706455        0.46349137693111
H            4.18804004156205       -4.46699784969705        2.92873509336541
H            3.37823547564710       -2.44901659265590        4.09583896752045
H            2.50269793478468       -0.55335456658557        2.81866464770610
