13
 energy: -15.161724290827 gnorm: 0.000713426542 xtb: 6.5.1 (fef0646)
N            0.97114213817482        0.04570254356664        0.08676028948198
C            2.45368514367861        0.07440938917374        0.07917696539599
C            2.94905242722884        1.01632583567326       -1.01843785139572
C            2.49630844984829        2.37633250766734       -0.78748740543624
C            2.08251402466913        3.47895681021106       -0.57172837199772
H            0.61541997359110       -0.53996881977650        0.85044776100694
H            0.61424960523086       -0.31821902800518       -0.80520975297202
H            0.61846717382151        1.00478727521879        0.20450014876281
H            2.83779973836098       -0.92950692387325       -0.09764034791157
H            2.80791534554376        0.42491224809520        1.04873869373694
H            2.60105374164124        0.68701476884872       -1.99983832768712
H            4.03970943977887        1.01254193686004       -1.03488634350720
H            1.74420279843210        4.45661145634020       -0.39764545747700
