  26
        -32.70933411
 N         -1.3196945548        1.4007873637        1.1913151800
 C         -0.8117783367        2.2043668212        0.0453899735
 C         -0.2180207355        1.3220963144       -1.0501383330
 C          0.8954405212        0.4459752755       -0.5538639812
 C          2.0684233207        0.9849641540       -0.2286094291
 C          3.2347697983        0.2144722276        0.3090876524
 C          3.0919244519       -1.3038137758        0.1112223379
 C          1.6682078714       -1.7687308676        0.4414773087
 C          0.6298168598       -1.0318870039       -0.4215442180
 Cl        -3.4321940330       -1.0424549646       -0.0752773330
 H         -0.5506717851        0.8819240563        1.6476363087
 H         -2.0086578608        0.6986858208        0.8669098160
 H         -1.7753293392        1.9844955603        1.9116454623
 H         -0.0547434011        2.9103455378        0.4061847576
 H         -1.6231661934        2.8225129077       -0.3602417550
 H          0.1490235880        1.9338721212       -1.8840111664
 H         -1.0062372611        0.6896393864       -1.4765653271
 H          2.1887035336        2.0491963968       -0.3594395700
 H          3.3398319746        0.4312292896        1.3800191143
 H          4.1630692076        0.5737881683       -0.1563713593
 H          3.8290750866       -1.8482962199        0.7180901987
 H          3.3240699442       -1.5596492555       -0.9306042052
 H          1.4616620781       -1.5774894907        1.5024921591
 H          1.5765980268       -2.8570599000        0.3169316911
 H         -0.3782501748       -1.1791802347       -0.0128459623
 H          0.6050157673       -1.4727284310       -1.4257940611
