  22
        -27.83284156
 N         -4.0928602632       -0.1987350027        0.6991684795
 C         -3.2691072777        0.1579802917       -0.4991969163
 C         -1.8519094215       -0.2671778657       -0.3674294570
 C         -0.8240836145        0.6040823163       -0.2237100371
 C          0.5558845231        0.2606709509       -0.0921126354
 C          1.0199734729       -1.0750437760       -0.1100419266
 C          2.3607862423       -1.3587439787        0.0147998852
 C          3.2849968218       -0.3334466418        0.1607415027
 C          2.8576128001        0.9867162733        0.1805570303
 C          1.5202199855        1.2843676272        0.0566113830
 H         -4.1012445850       -1.2179622167        0.8506894238
 H         -5.0717584728        0.1105728306        0.5991506891
 H         -3.7109067201        0.2375438133        1.5510393640
 H         -3.3188805107        1.2406869368       -0.6638556895
 H         -3.7119250128       -0.2953581685       -1.3950420524
 H         -1.6563634895       -1.3237114074       -0.3540320084
 H         -1.0614430384        1.6545134994       -0.2122720036
 H          0.3203233986       -1.8832110445       -0.2265056766
 H          2.6983637948       -2.3829568629       -0.0021038936
 H          4.3345578228       -0.5624516608        0.2573101737
 H          3.5782952142        1.7812971167        0.2925718146
 H          1.1967503811        2.3115458840        0.0709916265
