  22
        -27.83284156
 N         -4.0928602632       -0.1987350027        0.6991684795
 C         -3.2691072777        0.1579802917       -0.4991969163
 C         -1.8519094215       -0.2671778657       -0.3674294570
 C         -0.8240836145        0.6040823163       -0.2237100371
 C          0.5558845231        0.2606709509       -0.0921126354
 C          1.0199734729       -1.0750437760       -0.1100419266
 C          2.3607862423       -1.3587439787        0.0147998852
 C          3.2849968218       -0.3334466418        0.1607415027
 C          2.8576128001        0.9867162733        0.1805570303
 C          1.5202199855        1.2843676272        0.0566113830
 H         -4.1012445850       -1.2179622167        0.8506894238
 H         -5.0717584728        0.1105728306        0.5991506891
 H         -3.7109067201        0.2375438133        1.5510393640
 H         -3.3188805107        1.2406869368       -0.6638556895
 H         -3.7119250128       -0.2953581685       -1.3950420524
 H         -1.6563634895       -1.3237114074       -0.3540320084
 H         -1.0614430384        1.6545134994       -0.2122720036
 H          0.3203233986       -1.8832110445       -0.2265056766
 H          2.6983637948       -2.3829568629       -0.0021038936
 H          4.3345578228       -0.5624516608        0.2573101737
 H          3.5782952142        1.7812971167        0.2925718146
 H          1.1967503811        2.3115458840        0.0709916265
  22
        -27.83275833
 N         -4.0271865106        0.2166361230        0.7815398414
 C         -3.2671054727        0.2823312029       -0.5065506397
 C         -1.8189705789        0.5426210760       -0.3036639784
 C         -0.8785545949       -0.4315607253       -0.3508033034
 C          0.5249183470       -0.2544665573       -0.1544225418
 C          1.3894828177       -1.3701084824       -0.2422545724
 C          2.7465137212       -1.2320040951       -0.0634151718
 C          3.2928879492        0.0145094930        0.2084109852
 C          2.4683639430        1.1272522682        0.2995466395
 C          1.1092964914        1.0033149584        0.1221918717
 H         -5.0291546153        0.0260741050        0.6281467890
 H         -3.9535430120        1.1055667372        1.2976609716
 H         -3.6556481312       -0.5262670519        1.3913950056
 H         -3.7014393710        1.0604065538       -1.1468630259
 H         -3.4010656600       -0.6566982166       -1.0565323908
 H         -1.5274637173        1.5486260171       -0.0626938326
 H         -1.2122894499       -1.4335300303       -0.5619627865
 H          0.9736285795       -2.3402778421       -0.4553249705
 H          3.3901317037       -2.0944700263       -0.1357434950
 H          4.3574069090        0.1185360563        0.3474352735
 H          2.8977683542        2.0940979425        0.5094542341
 H          0.4879871569        1.8782436978        0.1931728897
  22
        -27.83263346
 N         -3.9920822433        0.0407421673       -0.8636171485
 C         -3.2896667256        0.0295894591        0.4583140861
 C         -1.8630372385       -0.3673541840        0.3446755014
 C         -0.8532472499        0.5309086369        0.2515034548
 C          0.5359544937        0.2238402709        0.1266448447
 C          1.0291388473       -1.1008351128        0.0843835682
 C          2.3776827229       -1.3492443907       -0.0322452072
 C          3.2813135101       -0.2984660004       -0.1096200385
 C          2.8252574478        1.0115919399       -0.0689562325
 C          1.4797603793        1.2740209525        0.0468119433
 H         -4.9794750712        0.3245862059       -0.7726877883
 H         -3.9742178452       -0.8941796626       -1.2967519016
 H         -3.5365896056        0.6931224798       -1.5184422994
 H         -3.8145621486       -0.6475361011        1.1439151452
 H         -3.3611231483        1.0227262444        0.9175335646
 H         -1.6442477492       -1.4179350605        0.2835202348
 H         -1.1147416146        1.5752573336        0.2803610654
 H          0.3456110470       -1.9285507321        0.1469045495
 H          2.7371243061       -2.3656868554       -0.0625510475
 H          4.3370793948       -0.4998715025       -0.1998990653
 H          3.5300322506        1.8259634718       -0.1270815972
 H          1.1340737662        2.2934746140        0.0802328551
  22
        -27.83254395
 N         -3.9718753305        0.2194887327       -0.8625540184
 C         -3.2795716923        0.2749168028        0.4635487299
 C         -1.8247587303        0.5456985353        0.3381299528
 C         -0.8965717327       -0.4386277220        0.2705506350
 C          0.5133967151       -0.2565912168        0.1342119734
 C          1.3628642537       -1.3861960547        0.0868245093
 C          2.7254149652       -1.2445607087       -0.0395638472
 C          3.2924309517        0.0194367404       -0.1232992347
 C          2.4830442338        1.1460467532       -0.0784601372
 C          1.1186355032        1.0186598351        0.0483333862
 H         -3.8747462917        1.1140447492       -1.3647123543
 H         -4.9798288922        0.0243576098       -0.7629900490
 H         -3.5670671904       -0.5156571496       -1.4605245782
 H         -3.4338327739       -0.6713147847        0.9955108299
 H         -3.7527207127        1.0422519854        1.0893457764
 H         -1.5163846340        1.5712593517        0.2454330617
 H         -1.2472072024       -1.4551123807        0.3313601781
 H          0.9309036176       -2.3702981923        0.1538551220
 H          3.3572316093       -2.1180912724       -0.0725125551
 H          4.3612005358        0.1260825754       -0.2218458831
 H          2.9284549792        2.1262244891       -0.1424069115
 H          0.5090568352        1.9039343148        0.0844955217
  22
        -27.83243752
 N         -3.9841713600        0.0403881820        0.7747859167
 C         -3.2797989250        0.0376789697       -0.5460676080
 C         -1.8540182621       -0.3621206876       -0.4332982531
 C         -0.8560099638        0.5294972722       -0.2240461531
 C          0.5324032204        0.2218647268       -0.0920357105
 C          1.0382966390       -1.0962368206       -0.1724867742
 C          2.3857552115       -1.3448465682       -0.0443497919
 C          3.2757220179       -0.3006688209        0.1662066570
 C          2.8070355181        1.0030074506        0.2478331446
 C          1.4624805613        1.2655284682        0.1217748774
 H         -4.9714409557        0.3247816190        0.6840880622
 H         -3.5300547837        0.6882195327        1.4350762211
 H         -3.9669120158       -0.8974964162        1.2014569957
 H         -3.3477146349        1.0343496716       -0.9979790807
 H         -3.8057983423       -0.6329201082       -1.2373928184
 H         -1.6268267944       -1.4122503856       -0.4682741502
 H         -1.1273623495        1.5695505858       -0.1566894800
 H          0.3656232359       -1.9183033150       -0.3397600616
 H          2.7550533667       -2.3561345214       -0.1091347656
 H          4.3307410793       -0.5020929078        0.2647937562
 H          3.5012682246        1.8124679310        0.4093798543
 H          1.1069940210        2.2802601274        0.1837504861
  22
        -27.83231759
 N         -3.9724008184        0.0809057942        0.7765456388
 C         -3.2809415261        0.0170985533       -0.5495518692
 C         -1.8543586351       -0.3786553789       -0.4329812496
 C         -0.8602207647        0.5169901805       -0.2230299150
 C          0.5294930497        0.2153054500       -0.0907287412
 C          1.0423629162       -1.0994147310       -0.1818327171
 C          2.3910853417       -1.3419588789       -0.0553386392
 C          3.2753962799       -0.2949304271        0.1646557244
 C          2.7997172043        1.0054632882        0.2576251296
 C          1.4538734851        1.2619556236        0.1329116827
 H         -3.5138695957        0.7601211703        1.4011521357
 H         -3.9485940982       -0.8357651367        1.2467744597
 H         -4.9612975860        0.3586413471        0.6821251768
 H         -3.3520675249        0.9923346181       -1.0456236888
 H         -3.8146453995       -0.6833827557       -1.2043928352
 H         -1.6229473918       -1.4280074205       -0.4655469120
 H         -1.1361881090        1.5557929673       -0.1553103803
 H          0.3741954399       -1.9234636908       -0.3572251515
 H          2.7658412996       -2.3506295712       -0.1291605018
 H          4.3314474872       -0.4915729011        0.2618019383
 H          3.4894647559        1.8170734906        0.4273763040
 H          1.0928752782        2.2741126357        0.2043518213
  22
        -27.83222673
 N         -3.9375125441        0.2348661018       -0.8614223097
 C         -3.2961133368       -0.0741311813        0.4553113016
 C         -1.8652363936       -0.4481735652        0.3213972153
 C         -0.8705879160        0.4698486547        0.2735454302
 C          0.5238023199        0.1932153985        0.1360883872
 C          1.0411526207       -1.1195763984        0.0427571585
 C          2.3940820868       -1.3385009074       -0.0819392861
 C          3.2782853062       -0.2691231143       -0.1181812130
 C          2.7981399195        1.0297864351       -0.0276032092
 C          1.4480996862        1.2628636462        0.0976400875
 H         -3.8942769192       -0.5804377230       -1.4900849925
 H         -3.4573473504        1.0145916619       -1.3340378920
 H         -4.9297823046        0.4956529102       -0.7547685972
 H         -3.8527479007       -0.8799744993        0.9501537605
 H         -3.3875912028        0.7941838670        1.1187504925
 H         -1.6290888921       -1.4907390788        0.2067519718
 H         -1.1505283581        1.5067712375        0.3527564675
 H          0.3729855456       -1.9615211660        0.0738609437
 H          2.7722082310       -2.3462976970       -0.1501757328
 H          4.3376175790       -0.4474229401       -0.2150202768
 H          3.4878144326        1.8585994041       -0.0541336740
 H          1.0837856247        2.2737455869        0.1702448087
  22
        -27.83214086
 N         -3.9320877860        0.2673586226       -0.8532084712
 C         -3.2966384781       -0.0920627608        0.4535459595
 C         -1.8652171169       -0.4614089725        0.3125398159
 C         -0.8731893442        0.4597637456        0.2729423013
 C          0.5221585961        0.1882336107        0.1348056043
 C          1.0435866244       -1.1223342219        0.0331580982
 C          2.3974135120       -1.3364595395       -0.0901267594
 C          3.2785186492       -0.2642519898       -0.1168075792
 C          2.7944200538        1.0325975240       -0.0181668120
 C          1.4434291173        1.2607889196        0.1058323249
 H         -3.4506835460        1.0651159922       -1.2931239692
 H         -4.9250581685        0.5230496460       -0.7407906810
 H         -3.8854964976       -0.5230758462       -1.5127350062
 H         -3.8560924891       -0.9157629046        0.9146366945
 H         -3.3906122589        0.7503511438        1.1492601492
 H         -1.6260178402       -1.5022726142        0.1887395674
 H         -1.1559979559        1.4951465112        0.3613858563
 H          0.3778718370       -1.9664477198        0.0572973820
 H          2.7786718304       -2.3426368650       -0.1645751207
 H          4.3385834922       -0.4388458792       -0.2124026464
 H          3.4816880342        1.8636009889       -0.0374680729
 H          1.0759229367        2.2700577993        0.1845022083
  22
        -27.83205662
 N         -3.9528944283       -0.0225943609        0.7492205266
 C         -3.2656453693        0.4101452971       -0.5081849259
 C         -1.8122681245        0.6459307532       -0.3150309493
 C         -0.9027735557       -0.3574920519       -0.3212942632
 C          0.5065928442       -0.2170890288       -0.1375900934
 C          1.3322630187       -1.3648939975       -0.1617842767
 C          2.6939557744       -1.2630922493        0.0054881470
 C          3.2837585286       -0.0220804149        0.2010124940
 C          2.4980783620        1.1217697944        0.2277645568
 C          1.1346553034        1.0341209240        0.0623505866
 H         -3.5464859761       -0.8969228493        1.1126838805
 H         -4.9610513605       -0.1828833361        0.6010987615
 H         -3.8546867968        0.6924386946        1.4847646251
 H         -3.7487314204        1.3177596622       -0.8915605843
 H         -3.4129035320       -0.3497658807       -1.2849759832
 H         -1.4890872166        1.6516784959       -0.1148915524
 H         -1.2698247572       -1.3563259492       -0.4868525175
 H          0.8825646161       -2.3311593714       -0.3154499776
 H          3.3073529070       -2.1499935841       -0.0164632905
 H          4.3518998746        0.0534484984        0.3303624697
 H          2.9613687308        2.0841977853        0.3772365746
 H          0.5438970875        1.9326370819        0.0806598530
  22
        -27.83196284
 N         -3.9134734167        0.3371713224       -0.8389874345
 C         -3.2990946488       -0.1295766458        0.4437146645
 C         -1.8660493450       -0.4897390525        0.2957358071
 C         -0.8790786704        0.4373695222        0.2786408358
 C          0.5181162315        0.1769507988        0.1378772737
 C          1.0482632678       -1.1285358605        0.0176722883
 C          2.4035566262       -1.3317988618       -0.1079565819
 C          3.2774629234       -0.2534288152       -0.1190980307
 C          2.7847136573        1.0386109175       -0.0019025266
 C          1.4322246777        1.2559146800        0.1252094568
 H         -3.4260982410        1.1684724728       -1.2038475120
 H         -4.9083848222        0.5830546780       -0.7218844525
 H         -3.8554180640       -0.3960906792       -1.5607171977
 H         -3.8674250656       -0.9864448723        0.8269838751
 H         -3.4023298310        0.6536326165        1.2043137512
 H         -1.6205583819       -1.5264661492        0.1506320425
 H         -1.1681332163        1.4689792436        0.3882148970
 H          0.3882291146       -1.9773641440        0.0303800218
 H          2.7916059695       -2.3342589767       -0.1962245261
 H          4.3386890758       -0.4195062453       -0.2169845119
 H          3.4663763067        1.8744103755       -0.0093750575
 H          1.0579210172        2.2614683868        0.2180812755
  22
        -27.82969847
 N         -3.7395610768        0.9312359926        0.1654012790
 C         -3.3345083402       -0.4664794171       -0.1903019907
 C         -1.8640909486       -0.6971704664       -0.2183123059
 C         -0.9379134809        0.2551553943        0.0434106529
 C          0.4796386019        0.0833433663        0.0298192518
 C          1.1030756218       -1.1504051659       -0.2682498725
 C          2.4743481493       -1.2667601064       -0.2681026179
 C          3.2721555060       -0.1695395996        0.0258709619
 C          2.6865607301        1.0533954194        0.3217436128
 C          1.3169830634        1.1836410299        0.3251860813
 H         -4.7656233844        1.0355610891        0.1720607533
 H         -3.3691336476        1.6127567985       -0.5133302101
 H         -3.4012258064        1.1916663470        1.1035177395
 H         -3.7607284611       -0.7179609155       -1.1697113296
 H         -3.7976587009       -1.1594359878        0.5236271700
 H         -1.5305094397       -1.6897602496       -0.4645395404
 H         -1.2923078302        1.2404269050        0.2865400994
 H          0.5023185567       -2.0121114135       -0.4983269270
 H          2.9341061683       -2.2151843775       -0.4972029410
 H          4.3463344858       -0.2672939480        0.0244037564
 H          3.3093515885        1.9039960676        0.5495887274
 H          0.8704823270        2.1361891567        0.5554998189
  22
        -27.82918801
 N         -4.1985675970        0.9929976852        0.1124118693
 C         -3.2709672315       -0.1721086177       -0.0518064970
 C         -1.8412924327        0.2078858020        0.0541609176
 C         -0.8278839799       -0.6625242383       -0.1704028524
 C          0.5659858488       -0.3671554277       -0.0778054908
 C          1.5153566964       -1.3771291553       -0.3577586375
 C          2.8651165905       -1.1236341219       -0.2780624692
 C          3.3196717643        0.1371081066        0.0826482730
 C          2.4102610616        1.1471139865        0.3643771150
 C          1.0572262696        0.9075399266        0.2875287029
 H         -5.1868041293        0.7093525760        0.0323134552
 H         -4.0212450148        1.7101475765       -0.6061679488
 H         -4.0761146604        1.4370459275        1.0343073258
 H         -3.4524146683       -0.6449800181       -1.0243321714
 H         -3.5038384445       -0.9319766734        0.7039311030
 H         -1.6212004191        1.2225791189        0.3294003424
 H         -1.0920312574       -1.6701182227       -0.4445418541
 H          1.1702793588       -2.3578280101       -0.6383925504
 H          3.5742237999       -1.9064091584       -0.4966415072
 H          4.3787837316        0.3316360516        0.1441588466
 H          2.7686664574        2.1246941107        0.6455348714
 H          0.3688224358        1.7027702398        0.5114711253
