27
 energy: -35.427235390620 gnorm: 0.000275871926 xtb: 6.5.1 (fef0646)
N            0.90824473923050        0.06750255271072        0.13146276883962
C            2.38762687855111        0.13467802106388       -0.07562219462565
C            3.08314402483676       -0.55447056387329        1.09211074900270
C            2.75029533902383       -0.49869870366849       -1.39800120725980
C            2.43575487964830       -1.85117022198785       -1.64550670690759
C            2.77268593163065       -2.43868161842666       -2.83092036942636
C            3.40163336822823        0.22848929310683       -2.35967580767902
C            3.76688667544160       -0.35027320910290       -3.59207792537047
C            3.44393650351153       -1.71073963336588       -3.83588243804395
C            3.80865759887434       -2.29018204599202       -5.06843807300270
C            4.46458624882206       -1.55458682876956       -6.01584553773179
C            4.78375199424276       -0.20824903338667       -5.77494454808902
C            4.44223868354597        0.38224254453303       -4.59055381483846
H            0.65644758555212        0.49804507523982        1.02907560048257
H            0.60192308665817       -0.91283591227951        0.14366170002554
H            0.41102111375267        0.55300942358569       -0.62424082411564
H            2.67777748153247        1.18776959536271       -0.09887876659609
H            2.80120535791013       -1.60085057548966        1.15957585602963
H            2.84922560622033       -0.06005619515704        2.03053517398718
H            4.15908848159280       -0.51220351417939        0.95268193203139
H            1.94147203933516       -2.44562351043416       -0.89287674830373
H            2.53403815658574       -3.47506133259773       -3.01861580459727
H            3.65730813369821        1.26403980895478       -2.18997364715152
H            3.56260990548091       -3.32609792921210       -5.25284914943180
H            4.74326651888581       -2.00304280195759       -6.95820389061592
H            5.30305925116702        0.35455137059988       -6.53661988056717
H            4.68855441604052        1.41755594472219       -4.40527644604433
