15
 energy: -16.242276014064 gnorm: 0.000343986413 xtb: 6.5.1 (fef0646)
N            1.04537701684974       -0.02635634225257        0.20095986932071
C            2.51638826805899       -0.01841953889482        0.02670374164892
C            3.26656942300238       -1.11565967756566        0.79348397487040
C            4.18332585917637       -0.04003897318955        1.40338241887938
C            3.25954007029822        1.05280081101914        0.83570814226018
H            0.63315496649032       -0.85343769952355       -0.24789323064836
H            0.62874193316425        0.81770801331339       -0.21085173877932
H            0.81512268058438       -0.04873720600757        1.20256616121653
H            2.75003886613162        0.00331503775407       -1.03693889868399
H            3.76141878174286       -1.86755906933051        0.18561256033357
H            2.65513616260797       -1.61635231940339        1.53937539145959
H            5.17841132501237       -0.02892990617549        0.96755068492574
H            4.28244974668128       -0.06089181003550        2.48502270482044
H            3.74910539190983        1.83116669412986        0.25761345312137
H            2.64449950828942        1.51993198616213        1.60040476525483
