  18
        -25.76785410
 N         -2.3571147201       -1.9066829872       -0.4788379781
 C         -0.8821443532       -2.1192618253       -0.5231175321
 C         -0.1917331279       -1.7667142729        0.7911355002
 C         -0.3398943438       -0.2996628815        1.1986807490
 C          0.2555114115        0.6669632772        0.1892007813
 Br         2.1266012794        0.3500148649       -0.1584722264
 Cl        -3.1746367714        1.5138312648       -0.0737600797
 H         -2.5876094253       -0.9084472697       -0.3385766895
 H         -2.7788889436       -2.4322481732        0.2977995020
 H         -2.8148265625       -2.2086912133       -1.3495249784
 H         -0.4521775749       -1.5316492958       -1.3418587429
 H         -0.6780359186       -3.1654682834       -0.7835461959
 H          0.8754648807       -2.0102791436        0.7226456031
 H         -0.5856594620       -2.4126026832        1.5851674896
 H          0.1460982009       -0.1387421333        2.1699968233
 H         -1.3989934371       -0.0658660645        1.3650799004
 H          0.1673374638        1.7032312751        0.5237408960
 H         -0.2571170012        0.6017609622       -0.7718364801
