27
 energy: -35.427169667428 gnorm: 0.000561094543 xtb: 6.5.1 (fef0646)
N            3.38892309395396       -0.76052812884786        0.76300975305205
C            2.38567298402123       -0.03318645695547       -0.07316442985473
C            1.04591987348617       -0.75335802129930        0.02090106949615
C            2.87575123919901        0.05385708831795       -1.49939364067361
C            3.16343512200562       -1.12364537128955       -2.22063363579954
C            3.59890980287953       -1.05979766401915       -3.51290083787149
C            3.02989773620505        1.27163164941896       -2.10832652653959
C            3.47443071321654        1.37110738787545       -3.44246868389621
C            3.77042813301381        0.18220208954502       -4.15957549394165
C            4.22093421392026        0.28050854695089       -5.49181401122523
C            4.37150189075936        1.50199303136387       -6.08706356451275
C            4.07801548633760        2.67825898292499       -5.37819527891605
C            3.63930187736543        2.61566687483521       -4.08514413781829
H            4.29558711821383       -0.27917634659224        0.74606596146376
H            3.52105483383636       -1.71195247449936        0.39897659210418
H            3.06246167770249       -0.82767734792004        1.73459819262722
H            2.28204282536250        0.97845016629639        0.32629039264214
H            1.11693940748579       -1.77105903462623       -0.35087776774422
H            0.30870828051766       -0.23352090278752       -0.58337659249045
H            0.68477102222417       -0.77085946512543        1.04513272526011
H            3.02556836599597       -2.09282092610951       -1.76698717972149
H            3.81802493274687       -1.96194212955068       -4.06460900057469
H            2.80729948792760        2.18584969738025       -1.57803690520433
H            4.44526210475399       -0.62559898981059       -6.03618468017406
H            4.71803363189012        1.57206738385072       -7.10776164467805
H            4.20385544166022        3.63351630760127       -5.86632651177571
H            3.41310870331879        3.52136405307195       -3.54153416323355
