  28
        -40.92077446
 N         -4.2415680085       -0.3202968813       -0.6048066954
 C         -3.4820880842        0.4443540552        0.3676563578
 C         -1.9611092068        0.2750745113        0.2400459058
 C         -1.2136962348        0.9196746273        1.4298011999
 C          0.3031203214        0.7024852167        1.3234223487
 C          0.8636437308        1.2339434929       -0.0104334853
 C          2.3413436012        0.9365084153       -0.1202594988
 O          3.1740233654        1.9977198384       -0.2101617476
 O          2.7202862535       -0.2131258773       -0.1236162064
 C          0.1004644687        0.6341909523       -1.2097070426
 C         -1.4164148877        0.8471308298       -1.0874106370
 Cl         0.9609898119       -2.9345393812        0.0627635458
 H         -4.0519346054       -0.0111354251       -1.5505970311
 H          1.7389399034       -1.8480901371       -0.0163843399
 H         -3.9975781465       -1.3022010913       -0.5567041344
 H         -3.8075273210        0.1470293342        1.3711210814
 H         -3.7450478622        1.5045472750        0.2788847040
 H         -1.7384276586       -0.8031567229        0.2516007124
 H         -1.6015306042        0.5295336288        2.3786050325
 H         -1.4314419591        1.9926680254        1.4432352833
 H          0.5316800425       -0.3654549316        1.3975833610
 H          0.8313391476        1.1697651193        2.1634174959
 H          0.7456484136        2.3270236125       -0.0304602094
 H          4.0816508302        1.6441889023       -0.2733822351
 H          0.3218027576       -0.4365806815       -1.2640387680
 H          0.4863666186        1.0561808126       -2.1458453982
 H         -1.9398411505        0.4016656792       -1.9411409006
 H         -1.6429404520        1.9172452871       -1.1300727460
