  13
        -15.15907832
 N         -1.6683904021       -0.8232977012        0.1576057108
 C         -1.1754084738        0.4705548581       -0.4036379083
 C          0.1107470626        0.9616278359        0.2659002232
 C          1.2319638488        0.1209768861        0.0616479468
 C          2.1951819005       -0.5909679247       -0.1145259133
 H         -1.8646781063       -0.7309038380        1.1586718073
 H         -0.9641157054       -1.5581295736        0.0392652100
 H         -2.5279393542       -1.1273669074       -0.3104249016
 H         -1.9675842987        1.2241951915       -0.3054772255
 H         -1.0021279788        0.3492184508       -1.4803232875
 H         -0.0547892664        1.0659371339        1.3449149829
 H          0.3660694202        1.9665609714       -0.0956173672
 H          3.0472562310       -1.2145139707       -0.2697028558
