  13
        -15.15907832
 N         -1.6683904021       -0.8232977012        0.1576057108
 C         -1.1754084738        0.4705548581       -0.4036379083
 C          0.1107470626        0.9616278359        0.2659002232
 C          1.2319638488        0.1209768861        0.0616479468
 C          2.1951819005       -0.5909679247       -0.1145259133
 H         -1.8646781063       -0.7309038380        1.1586718073
 H         -0.9641157054       -1.5581295736        0.0392652100
 H         -2.5279393542       -1.1273669074       -0.3104249016
 H         -1.9675842987        1.2241951915       -0.3054772255
 H         -1.0021279788        0.3492184508       -1.4803232875
 H         -0.0547892664        1.0659371339        1.3449149829
 H          0.3660694202        1.9665609714       -0.0956173672
 H          3.0472562310       -1.2145139707       -0.2697028558
  13
        -15.15748646
 N         -2.3360467377       -0.0038914798        0.0700858735
 C         -0.9390529826       -0.3860137419       -0.3003399878
 C          0.1246683582        0.4741379026        0.3817363894
 C          1.4556028449        0.1146008316        0.0529675188
 C          2.5908623393       -0.1969255378       -0.2296764951
 H         -3.0195604459       -0.6010887540       -0.4038832482
 H         -2.5254351349        0.9674677307       -0.1918322621
 H         -2.4788418174       -0.0957775296        1.0797914734
 H         -0.8212009908       -0.3185138611       -1.3891034111
 H         -0.7733765107       -1.4406256755       -0.0467300084
 H          0.0036396618        0.4161427664        1.4700298374
 H         -0.0298488120        1.5278641803        0.1210847230
 H          3.5922242450       -0.4705005635       -0.4775081800
