  25
        -27.88014346
 N          2.6893908554       -0.7796490425        0.8524271028
 C          2.5464207948        0.5149241862        0.1255934013
 C          1.5120779153        0.4563581298       -0.9973935141
 C          0.1153659101        0.1984014325       -0.5096919998
 C         -0.3762412981       -1.0366814682       -0.5148393191
 C         -1.7506870757       -1.4065706792       -0.0535441460
 C         -2.6814822818       -0.1914294120        0.0882085382
 C         -1.9537385102        0.9826871785        0.7554725489
 C         -0.6919088214        1.3752748869       -0.0313828342
 H          3.3974501514       -0.7193098331        1.5936603811
 H          2.9681500981       -1.5296286697        0.2090610963
 H          1.8001760454       -1.0530464298        1.2881824840
 H          3.5237717521        0.8077758731       -0.2761806051
 H          2.2721961440        1.2990333113        0.8397401071
 H          1.7940992339       -0.3207469914       -1.7144672437
 H          1.5184600344        1.3917040506       -1.5677571832
 H          0.2491062464       -1.8286458017       -0.8924549051
 H         -1.6752951039       -1.9198782841        0.9125074630
 H         -2.1866164963       -2.1383581968       -0.7455155954
 H         -3.5851742728       -0.4571236670        0.6519743270
 H         -3.0317019736        0.1167036015       -0.9036917158
 H         -1.6735631024        0.7011394864        1.7769272195
 H         -2.6271394785        1.8430832827        0.8614589590
 H         -0.0523827149        2.0233725562        0.5786764028
 H         -0.9761762730        1.9773145257       -0.9018815376
  25
        -27.88001196
 N          2.6277951980       -0.7717898583       -1.0020149179
 C          2.5336376227        0.5085780768       -0.2426056725
 C          1.5647002853        0.4289264028        0.9356648216
 C          0.1419834781        0.1886533352        0.5187230616
 C         -0.3822965664       -1.0301614518        0.6030297211
 C         -1.7872613785       -1.3804992506        0.2249299503
 C         -2.4740960555       -0.2923328133       -0.6164861602
 C         -2.1580632755        1.1064073984       -0.0714008134
 C         -0.6411195195        1.3542120514       -0.0225290553
 H          2.9664654290       -1.5296399093       -0.3978549926
 H          3.2698113139       -0.6911221524       -1.7994299351
 H          1.7074734313       -1.0474453256       -1.3655334174
 H          2.2206147515        1.3082612254       -0.9226315757
 H          3.5339638090        0.7905829084        0.1072321507
 H          1.6090363019        1.3498419173        1.5273880194
 H          1.8823720037       -0.3663153247        1.6168010020
 H          0.2408016217       -1.8242334638        0.9800859418
 H         -2.3669291289       -1.5484283818        1.1406989787
 H         -1.7969376676       -2.3374043716       -0.3122212915
 H         -3.5589582779       -0.4562736660       -0.6523926205
 H         -2.1311790246       -0.3622882254       -1.6551205325
 H         -2.5749059257        1.2041672370        0.9375298398
 H         -2.6573214698        1.8767222137       -0.6733725685
 H         -0.4225466115        2.2423006120        0.5818364961
 H         -0.2760877901        1.5848478772       -1.0294858529
  25
        -27.87837402
 N          3.7884690380       -0.0341423283        0.2887871524
 C          2.3271737672       -0.1721252869        0.5628596083
 C          1.4621571052        0.2130038917       -0.6328135979
 C         -0.0083858637        0.0866226782       -0.3568932983
 C         -0.5960929968       -1.1031232418       -0.4332750439
 C         -2.0436704931       -1.3553828706       -0.1513295911
 C         -2.8791768528       -0.0656653774       -0.1051015140
 C         -2.1396160572        1.0416179825        0.6569885999
 C         -0.7667898612        1.3286560977        0.0261995444
 H          4.0203329322        0.9337764338        0.0424458555
 H          4.0680270216       -0.6331950965       -0.4950463586
 H          4.3496327775       -0.2975004861        1.1064870132
 H          2.0574320347        0.4460611878        1.4262935025
 H          2.1063965781       -1.2032783659        0.8601318477
 H          1.7243187465       -0.4055205284       -1.4966360085
 H          1.6882428289        1.2399656282       -0.9351675339
 H          0.0090891171       -1.9474347423       -0.7201507879
 H         -2.1309530137       -1.8778448355        0.8089402334
 H         -2.4506842148       -2.0436768337       -0.9028696827
 H         -3.8620454753       -0.2550676927        0.3454803359
 H         -3.0829763932        0.2730793302       -1.1274300278
 H         -2.0031307615        0.7333195165        1.6998775909
 H         -2.7469982381        1.9551254316        0.6962148554
 H         -0.1521492139        1.9238168229        0.7115478815
 H         -0.8958997738        1.9474061034       -0.8690168997
  25
        -27.87830110
 N          2.6116298879        0.5931694787       -1.1483064175
 C          2.5907419446       -0.3745702402       -0.0138035123
 C          1.5470990150       -0.0220358873        1.0452208484
 C          0.1371816964       -0.0574265313        0.5309895705
 C         -0.4115024442       -1.2185320698        0.1888384951
 C         -1.8056703494       -1.3782559112       -0.3286550613
 C         -2.6876604010       -0.1508872883       -0.0490621022
 C         -1.9307050084        1.1481885598       -0.3540325717
 C         -0.6249467193        1.2388406466        0.4543012014
 H          2.8225027646        1.5410649775       -0.8147966418
 H          1.6991884863        0.6206288259       -1.6190564113
 H          3.3189900129        0.3388024053       -1.8484729796
 H          3.5891050871       -0.4174874206        0.4376049365
 H          2.3977986637       -1.3798994634       -0.4038650860
 H          1.7587086908        0.9750828052        1.4433878015
 H          1.6260772574       -0.7008705553        1.9014756815
 H          0.1813552633       -2.1110507517        0.3029943466
 H         -2.2600911409       -2.2784646996        0.1050297970
 H         -1.7640109656       -1.5567370703       -1.4096006275
 H         -2.9930024754       -0.1538599225        1.0035874826
 H         -3.6190703104       -0.2010829514       -0.6280711078
 H         -2.5682639801        2.0198951606       -0.1572740531
 H         -1.7008767013        1.1888862471       -1.4247375513
 H         -0.8489246411        1.5685025940        1.4748138068
 H          0.0276148221        2.0117740538        0.0318702950
  25
        -27.87828514
 N          3.7992553443        0.0459198659       -0.1275887219
 C          2.3513528609        0.0728177515       -0.4919701475
 C          1.4345048630       -0.0934193794        0.7156155582
 C         -0.0225312169       -0.0733204316        0.3533693784
 C         -0.5966244906       -1.1670112449       -0.1374565820
 C         -2.0293309380       -1.2579969514       -0.5582547732
 C         -2.8804696469       -0.0877938941       -0.0391931278
 C         -2.1337510854        1.2438908408       -0.1905786966
 C         -0.7827817650        1.2114970966        0.5436800911
 H          4.3962623460        0.1647968499       -0.9531114694
 H          4.0441788740       -0.8456268072        0.3158185298
 H          4.0198048877        0.7973784530        0.5348743368
 H          2.1441767780       -0.7161432356       -1.2232462942
 H          2.1196229368        1.0140501800       -1.0028657386
 H          1.6387239280        0.6966848292        1.4445987021
 H          1.6666230443       -1.0291204643        1.2331412334
 H          0.0085162739       -2.0530261670       -0.2380415756
 H         -2.4524605579       -2.2132507557       -0.2216685804
 H         -2.0753536421       -1.2813877582       -1.6534296896
 H         -3.1179505246       -0.2512198717        1.0182270130
 H         -3.8474762890       -0.0501961415       -0.5575007562
 H         -2.7516906729        2.0757275606        0.1715485296
 H         -1.9644363444        1.4440874406       -1.2547577295
 H         -0.9441761795        1.3641436784        1.6164130684
 H         -0.1541305692        2.0484097431        0.2167800768
  25
        -27.87816884
 N          3.7940258064       -0.0533585603        0.2697597493
 C          2.3351461236       -0.2102546418        0.5469728850
 C          1.4602106229        0.2445270519       -0.6167638119
 C         -0.0085620151        0.1038282411       -0.3380770827
 C         -0.5819761477       -1.0932495741       -0.4068809636
 C         -2.0272656629       -1.3588218692       -0.1274056358
 C         -2.8783840263       -0.0787680945       -0.1237442081
 C         -2.1667638018        1.0504872040        0.6326890125
 C         -0.7827029993        1.3416506434        0.0282321969
 H          4.0660983455       -0.6001291834       -0.5537749080
 H          4.3632997718       -0.3683361146        1.0628218202
 H          4.0234075038        0.9290772039        0.0843031748
 H          2.0711173869        0.3542295777        1.4481305089
 H          2.1187924753       -1.2579488649        0.7832148114
 H          1.7137565189       -0.3229165697       -1.5174302220
 H          1.6858910592        1.2870503630       -0.8604289717
 H          0.0333305191       -1.9325071328       -0.6867911765
 H         -2.1139702259       -1.8542822253        0.8471285971
 H         -2.4200070234       -2.0738238568       -0.8614452283
 H         -3.8685232943       -0.2707298094        0.3095712225
 H         -3.0637740812        0.2380245093       -1.1565568258
 H         -2.0513533124        0.7638799057        1.6842642019
 H         -2.7845617849        1.9577614980        0.6403878838
 H         -0.1847139538        1.9412233132        0.7244124462
 H         -0.8971073024        1.9581092278       -0.8705753009
  25
        -27.87808312
 N          2.6197713561       -0.1870199359        1.2103046996
 C          2.5849388050       -0.3196593173       -0.2747001719
 C          1.5270857537        0.5722211825       -0.9237559977
 C          0.1246357944        0.2610303386       -0.4868583503
 C         -0.4112144490       -0.9206278172       -0.7745065556
 C         -1.7978045595       -1.3407934638       -0.4009776860
 C         -2.4381948212       -0.4256790255        0.6552306342
 C         -2.1493899216        1.0499329041        0.3515829251
 C         -0.6371512331        1.3180176349        0.2679072075
 H          3.3419909704       -0.7870396130        1.6261693401
 H          1.7161192428       -0.4528470409        1.6196798477
 H          2.8163455395        0.7830500779        1.4845487413
 H          2.4000806330       -1.3670374594       -0.5363517091
 H          3.5771509064       -0.0844546617       -0.6782300642
 H          1.5797055038        0.4961046832       -2.0154119430
 H          1.7501655562        1.6182261990       -0.6928414162
 H          0.1897980842       -1.6283090520       -1.3212984819
 H         -1.7843166543       -2.3789664431       -0.0445783008
 H         -2.4211148690       -1.3439950466       -1.3030027019
 H         -2.0410912458       -0.6763137641        1.6454153324
 H         -3.5199452194       -0.6023604515        0.7177827808
 H         -2.6159982545        1.6967751730        1.1058526216
 H         -2.6197182848        1.3211392831       -0.6005945562
 H         -0.2216540329        1.3965842670        1.2780121854
 H         -0.4549370999        2.2913012119       -0.2035880704
  25
        -27.87802866
 N          3.7774228688       -0.1068779010        0.3350999262
 C          2.3095350448       -0.2395462875        0.5740552734
 C          1.4728788608        0.2725305221       -0.5939284841
 C         -0.0045069170        0.1322894666       -0.3640543312
 C         -0.5933924278       -1.0426004298       -0.5633914955
 C         -2.0482066824       -1.3088472424       -0.3421375586
 C         -2.7190822773       -0.2389642860        0.5339621486
 C         -2.2887686907        1.1688972258        0.1022363210
 C         -0.7594471642        1.3284250554        0.1519067568
 H          4.0578569963       -0.6375530745       -0.4961191207
 H          4.3204246994       -0.4551771214        1.1325362441
 H          4.0314934168        0.8749651683        0.1815734112
 H          2.0371601032        0.3013335848        1.4871070645
 H          2.0647349615       -1.2892071921        0.7707140555
 H          1.7491401041       -0.2585593337       -1.5099599369
 H          1.7149513904        1.3220068656       -0.7862644806
 H          0.0170525452       -1.8628743393       -0.9036485648
 H         -2.1793944715       -2.3029405517        0.1045199353
 H         -2.5524507799       -1.3499185142       -1.3147685553
 H         -2.4394274079       -0.3982897731        1.5816722102
 H         -3.8119741094       -0.3372583871        0.5003218999
 H         -2.7773626272        1.9286776113        0.7258847990
 H         -2.6405229698        1.3559071068       -0.9188275279
 H         -0.4438755445        1.5207198344        1.1830622730
 H         -0.4554806358        2.2132344742       -0.4201261950
  25
        -27.87793603
 N          3.7861184809        0.0021983909       -0.2330649083
 C          2.3260766782       -0.0147242565       -0.5462717443
 C          1.4511928473        0.0139597542        0.7028339889
 C         -0.0173559308       -0.0175768568        0.3901460152
 C         -0.6020202279       -1.1736991068        0.0927743263
 C         -2.0461272694       -1.3247051301       -0.2648152360
 C         -2.6958532309        0.0061253439       -0.6757773271
 C         -2.2942864803        1.1302191623        0.2879661730
 C         -0.7656637233        1.2886394080        0.3603547896
 H          4.0440567644       -0.8107431023        0.3362729732
 H          4.0339734330        0.8464691532        0.2937039913
 H          4.3524869893       -0.0163793706       -1.0885582502
 H          2.0904354898       -0.9047053972       -1.1400127224
 H          2.0794925808        0.8388357877       -1.1875324697
 H          1.6809422245        0.9068343438        1.2919452012
 H          1.7014439710       -0.8307286328        1.3517657953
 H          0.0043326981       -2.0644898948        0.1037573521
 H         -2.5827267048       -1.7399735273        0.5966516226
 H         -2.1535204716       -2.0641950323       -1.0685197792
 H         -3.7881821404       -0.0919469674       -0.7232280921
 H         -2.3777109961        0.2683894510       -1.6913609741
 H         -2.6839905365        0.9044615597        1.2872292337
 H         -2.7675362750        2.0760507575       -0.0058719407
 H         -0.4906046574        1.8748426219        1.2448833348
 H         -0.4159286514        1.8702382238       -0.4999058074
  25
        -27.87701963
 N          3.8530323711       -0.1959973020        0.0261505238
 C          2.4183428468       -0.6129038927        0.0153128616
 C          1.4626645070        0.5780805468       -0.0036365396
 C         -0.0111157054        0.2576847021       -0.0006581330
 C         -0.4706922491       -0.9908177210       -0.0101637316
 C         -1.9193775981       -1.3675995042       -0.0025422415
 C         -2.8473489430       -0.1968300797       -0.3622097179
 C         -2.4004308933        1.0881282281        0.3448413658
 C         -0.9467677873        1.4389233157       -0.0125297306
 H          4.4802193738       -1.0073990632        0.0413391143
 H          4.0572354723        0.3773532562        0.8514806113
 H          4.0749303131        0.3606684233       -0.8064910265
 H          2.2186610944       -1.2349605999        0.8946684688
 H          2.2365065298       -1.2498926875       -0.8572895744
 H          1.6808911533        1.1941902233       -0.8814417684
 H          1.6795578482        1.2170052370        0.8579138301
 H          0.2370427073       -1.8016025124       -0.0255964553
 H         -2.1810771916       -1.7430005932        0.9941578447
 H         -2.0857248098       -2.2071287424       -0.6895250821
 H         -3.8896063037       -0.4341170594       -0.1123236110
 H         -2.8314717285       -0.0384660114       -1.4467329956
 H         -2.4858611318        0.9530423912        1.4291854187
 H         -3.0728980264        1.9195337566        0.0967168215
 H         -0.5639502899        2.2023986513        0.6748213853
 H         -0.9150033387        1.8963310271       -1.0078903187
  25
        -27.87447387
 N          3.3337918799        0.2734887778        0.9313891150
 C          2.4238588180       -0.5535250778        0.0845325383
 C          1.4938438079        0.2987548998       -0.8003052691
 C          0.0396173593        0.1356106790       -0.4609518350
 C         -0.5950910867       -0.9770849148       -0.8154105691
 C         -2.0329234495       -1.2638382169       -0.5202793008
 C         -2.6061820277       -0.3532696708        0.5773080744
 C         -2.1718477976        1.1022995324        0.3619837468
 C         -0.6392825018        1.2289452079        0.3197425949
 H          3.9432469054        0.8558098072        0.3467344988
 H          3.9308150485       -0.3127997704        1.5253381006
 H          2.7943787569        0.8967284359        1.5431723107
 H          1.8211376656       -1.2012878449        0.7317021174
 H          3.0266629656       -1.2359634363       -0.5273917842
 H          1.6377641253        0.0628543809       -1.8606866754
 H          1.7701710255        1.3531303214       -0.7052346176
 H         -0.0364065476       -1.7281452238       -1.3494352920
 H         -2.1499618780       -2.3182756583       -0.2386041661
 H         -2.6154955327       -1.1344371181       -1.4400037675
 H         -2.2525251624       -0.6959413969        1.5564872794
 H         -3.7007039024       -0.4295414298        0.6141374070
 H         -2.5923240069        1.7492700779        1.1427606398
 H         -2.5927500037        1.4682196134       -0.5815328562
 H         -0.2432232749        1.2244969964        1.3407717409
 H         -0.3540137977        2.1987532178       -0.1052994702
  25
        -27.87438545
 N          2.9321649322        1.3306427606        0.2428502321
 C          2.5733368434       -0.1051201920        0.4462754905
 C          1.5673717200       -0.6329755283       -0.5848831239
 C          0.1104047840       -0.4032046952       -0.2763860340
 C         -0.7852550604       -1.2346647428       -0.8034851842
 C         -2.2672480671       -1.1308620013       -0.6238626851
 C         -2.7124953598        0.2396478450       -0.0906851038
 C         -1.7744090327        0.7204453080        1.0226312700
 C         -0.3190936466        0.7937554730        0.5293770904
 H          3.3671405113        1.4677537317       -0.6767683225
 H          3.5954043402        1.6575488882        0.9555286542
 H          2.1057281195        1.9387604279        0.2836931395
 H          2.1888853771       -0.2619444296        1.4597270145
 H          3.4991821232       -0.6922330924        0.3984616535
 H          1.7175659625       -1.7114707882       -0.7108221832
 H          1.7907510402       -0.1945482887       -1.5620882159
 H         -0.4217567186       -2.0441652605       -1.4153280057
 H         -2.5943110272       -1.9137547927        0.0710471868
 H         -2.7698631739       -1.3482062617       -1.5749723156
 H         -3.7497965781        0.2007215055        0.2666087667
 H         -2.7081496446        0.9691151020       -0.9088851488
 H         -1.8359993925        0.0293278869        1.8712411615
 H         -2.1025447130        1.6937509719        1.4101370322
 H          0.3514046257        0.9177266739        1.3862395474
 H         -0.1929616767        1.6897834275       -0.0881485530
  25
        -27.87380442
 N          2.8797474806        1.3690778197       -0.0493088283
 C          2.5845927414        0.0099670278        0.4947136727
 C          1.5821259127       -0.7822022728       -0.3522272758
 C          0.1217237686       -0.4536398546       -0.1756496039
 C         -0.7705633183       -1.2834012936       -0.7108916038
 C         -2.2572900827       -1.1233004586       -0.6343249491
 C         -2.6944529556        0.2683171576       -0.1501555788
 C         -1.7886788729        0.7610820857        0.9845334017
 C         -0.3182457867        0.7980628309        0.5356046282
 H          2.0316979085        1.9430880035       -0.1165407050
 H          3.2798114378        1.3026474253       -0.9924243908
 H          3.5508996458        1.8733643298        0.5428937876
 H          2.2324749573        0.0820138882        1.5288783243
 H          3.5322832246       -0.5398799289        0.5560825169
 H          1.7066294704       -1.8516515413       -0.1457881650
 H          1.8380666977       -0.6599019479       -1.4090915933
 H         -0.3979403164       -2.1442786082       -1.2420968006
 H         -2.6584665245       -1.8845791415        0.0457766998
 H         -2.7001899940       -1.3385359566       -1.6150621399
 H         -3.7444413816        0.2575544331        0.1700105129
 H         -2.6471390876        0.9772346642       -0.9848932061
 H         -1.8886634407        0.0903853531        1.8457134234
 H         -2.1131727097        1.7483265017        1.3384492901
 H          0.3268892778        0.9800496356        1.4013017217
 H         -0.1732725930        1.6495000228       -0.1378991866
