  25
        -27.77224648
 N          2.7070170242       -0.7969498321        0.8241198375
 C          2.5500161663        0.5193713254        0.1419647614
 C          1.5122203828        0.4891651651       -0.9801562315
 C          0.1146731227        0.2136466420       -0.5009665547
 C         -0.3647238245       -1.0277198207       -0.5141725765
 C         -1.7400879994       -1.4150325753       -0.0656804981
 C         -2.6858600554       -0.2123937189        0.0855558680
 C         -1.9747167265        0.9705514219        0.7548812732
 C         -0.7126046984        1.3804352558       -0.0239701820
 H          1.8215858656       -1.1052123948        1.2520071999
 H          3.4154432916       -0.7566443648        1.5731378701
 H          3.0039971980       -1.5266293891        0.1588318561
 H          3.5252795731        0.8331638006       -0.2523443404
 H          2.2729496297        1.2783744621        0.8829914213
 H          1.7967770905       -0.2673473601       -1.7194675924
 H          1.5171533087        1.4402832664       -1.5258134854
 H          0.2723862592       -1.8123954200       -0.8905100522
 H         -1.6664070086       -1.9411869639        0.8939732111
 H         -2.1649371026       -2.1434552167       -0.7691368339
 H         -3.5837588668       -0.4937229070        0.6524716661
 H         -3.0484708950        0.0942856933       -0.9031199214
 H         -1.6982347173        0.6943387200        1.7796008776
 H         -2.6598160783        1.8231301063        0.8570501141
 H         -0.0850714565        2.0364160366        0.5909051950
 H         -0.9995188583        1.9817885658       -0.8944393360
