  25
        -27.88014346
 N          2.6893908554       -0.7796490425        0.8524271028
 C          2.5464207948        0.5149241862        0.1255934013
 C          1.5120779153        0.4563581298       -0.9973935141
 C          0.1153659101        0.1984014325       -0.5096919998
 C         -0.3762412981       -1.0366814682       -0.5148393191
 C         -1.7506870757       -1.4065706792       -0.0535441460
 C         -2.6814822818       -0.1914294120        0.0882085382
 C         -1.9537385102        0.9826871785        0.7554725489
 C         -0.6919088214        1.3752748869       -0.0313828342
 H          3.3974501514       -0.7193098331        1.5936603811
 H          2.9681500981       -1.5296286697        0.2090610963
 H          1.8001760454       -1.0530464298        1.2881824840
 H          3.5237717521        0.8077758731       -0.2761806051
 H          2.2721961440        1.2990333113        0.8397401071
 H          1.7940992339       -0.3207469914       -1.7144672437
 H          1.5184600344        1.3917040506       -1.5677571832
 H          0.2491062464       -1.8286458017       -0.8924549051
 H         -1.6752951039       -1.9198782841        0.9125074630
 H         -2.1866164963       -2.1383581968       -0.7455155954
 H         -3.5851742728       -0.4571236670        0.6519743270
 H         -3.0317019736        0.1167036015       -0.9036917158
 H         -1.6735631024        0.7011394864        1.7769272195
 H         -2.6271394785        1.8430832827        0.8614589590
 H         -0.0523827149        2.0233725562        0.5786764028
 H         -0.9761762730        1.9773145257       -0.9018815376
