15
 energy: -19.496636915009 gnorm: 0.000431002665 xtb: 6.5.1 (fef0646)
N            2.31342782403911        0.08996450798283        0.10168750855215
C            0.85114721818182        0.04317734054162        0.02404662005278
C            0.20314011169642       -1.17969343643035        0.00616583841066
C           -1.18089440527129       -1.21416125923458       -0.05803572374599
C           -1.90434184090825       -0.03395578256093       -0.10321475901416
C           -1.24672826691642        1.18616674537502       -0.08652852404756
C            0.13560120162801        1.22946248018674       -0.02315445141880
H            2.70533761545940       -0.85683625667497        0.01089800725461
H            2.70011545263394        0.68336506147985       -0.64564207452065
H            2.61776451054428        0.48403433120489        1.00393798907197
H            0.75786162522835       -2.10374753203947        0.04218563826941
H           -1.69409358941818       -2.16268023245759       -0.07238769350404
H           -2.98165868949514       -0.06412351302281       -0.15230725108248
H           -1.81208830418098        2.10393400476001       -0.12279269998095
H            0.64172953677891        2.18136354088973       -0.01014842429696
