  23
        -32.80990377
 N         -2.5505062078       -0.5496702234       -0.9105039150
 C         -1.7871124621       -0.2590510665        0.2967519273
 C         -0.3287395950       -0.5055904866        0.1414315985
 C          0.5949972683        0.4353259856        0.3190907302
 C          2.0359958203        0.2314474290        0.1594852635
 C          2.8704123482        1.3237359337       -0.0739811029
 C          4.2303260674        1.1560090351       -0.2254869433
 C          4.7856604845       -0.1052402491       -0.1435119802
 C          3.9766096625       -1.1984522457        0.0932585653
 C          2.6159953487       -1.0336791586        0.2447511490
 Cl        -5.6172128245        0.2508878279        0.1194007003
 H         -2.4041138931       -1.5181997286       -1.1732677421
 H         -2.1775004117       -0.0017043645       -1.6786096903
 H         -4.3883779449       -0.0720442724       -0.2995534532
 H         -2.1842937456       -0.8566631498        1.1276635736
 H         -1.9647300946        0.7845715062        0.5840749244
 H         -0.0264911730       -1.4903632370       -0.1676144545
 H          0.2723071154        1.4273634311        0.5871971434
 H          2.4374835901        2.3075905825       -0.1399644714
 H          4.8611776778        2.0109756668       -0.4083080475
 H          5.8492493808       -0.2358613211       -0.2618211500
 H          4.4103098483       -2.1831226899        0.1624541561
 H          1.9947560793       -1.8891928096        0.4470348430
