25
 energy: -32.961238906681 gnorm: 0.000588591500 xtb: 6.5.1 (fef0646)
N            3.09904589315378       -1.47230237057459       -1.74773221178758
C            2.46129476576143       -0.52922203311740       -0.78275560683044
C            2.88040113892324       -0.95130644652773        0.62859446954128
C            4.38519662181394       -1.00303873203058        0.68657924503144
C            5.12962990434786        0.12438925857280        1.00544104465045
C            6.51098853305203        0.10749681779421        0.96668913377451
C            7.19042166479073       -1.05293886726164        0.58838924137698
O            8.52281782415023       -1.17924033369047        0.49764286504969
C            9.35146975479722       -0.08966116593851        0.84923754406363
C            6.44578141509463       -2.19537491754455        0.27390793612104
C            5.06642518635631       -2.16852867930064        0.31672943644772
H            3.18906314187425       -1.07863745363838       -2.68850357821835
H            2.57343381602250       -2.35141953009166       -1.80279104926380
H            4.04834983757699       -1.68319307294988       -1.32880267176541
H            1.37918282324581       -0.54192534704834       -0.90730750081246
H            2.83265745038803        0.47503130539580       -0.98924177916401
H            2.45164236039572       -1.92440435779797        0.87183611941984
H            2.49308489092827       -0.22651155800635        1.34229947192354
H            4.62306208244716        1.02975340009332        1.30438073245484
H            7.05261436772904        0.99807113514335        1.23932930374306
H           10.37070523590809       -0.44514421266014        0.71529156445667
H            9.20385917928349        0.20277499521677        1.89192541023352
H            9.17908132636080        0.76987666256142        0.19549181567064
H            6.97780533891150       -3.09592425785573        0.01424817402720
H            4.52534544668629       -3.09351023874392        0.15812088985510
