  14
        -19.98475126
 N          0.1385078749        1.2749865460       -0.8805878398
 C          0.9807638827        1.4784550698        0.3288024371
 C          1.3492756340        0.1522947912        0.9947808557
 C          2.1161270500       -0.7226902666        0.1666970856
 C          2.7604865647       -1.4525758701       -0.5605410204
 Cl        -2.7175069207       -0.4802737698        0.0453938954
 H         -0.1244288775        2.1668731376       -1.3331001740
 H         -0.7357613274        0.7714209501       -0.6375512148
 H          0.6341474457        0.7006380996       -1.5803419510
 H          0.4541548602        2.1309129739        1.0372193767
 H          1.8949976680        2.0166391527        0.0506645566
 H          0.4307731373       -0.3666353664        1.2972035896
 H          1.9017575254        0.3359444707        1.9259389835
 H          3.3274966333       -2.0915639360       -1.1988857357
  14
        -19.98457434
 N          0.1054979672        1.1778191577        1.0087439780
 C          0.9884149585        1.5007759980       -0.1443108808
 C          1.3824196413        0.2479118034       -0.9273254003
 C          2.1239350730       -0.7060926493       -0.1661241494
 C          2.7456667196       -1.5063520943        0.5045665626
 Cl        -2.7151331716       -0.4665466480       -0.1864034480
 H         -0.7563746718        0.7044959868        0.6872288468
 H         -0.1753164311        2.0225281848        1.5413926135
 H          0.5777658608        0.5348585561        1.6635403818
 H          1.8915806359        2.0069806822        0.2180111857
 H          0.4852762149        2.2219421929       -0.8009876802
 H          1.9649768574        0.5237520648       -1.8165196864
 H          0.4759274661       -0.2375268238       -1.3106028029
 H          3.2919498087       -2.2077250110        1.0936378197
  14
        -19.98209387
 N         -0.0911930969       -0.2651128643        0.5891809661
 C          0.8073080930        0.8524192218        0.1925085329
 C          2.2488199320        0.6122781749        0.6420273675
 C          2.8535501867       -0.5459009315        0.0654349902
 C          3.3445601955       -1.5405459930       -0.4309503767
 Cl        -3.3602194403        0.2953535093       -0.4787975006
 H          0.2322778613       -1.1576260791        0.1829553444
 H         -1.0702438119       -0.1119458420        0.2767428614
 H         -0.1031167635       -0.3841658627        1.6145840626
 H          0.4262194559        1.7944921690        0.6073868473
 H          0.7786915390        0.9738816974       -0.8971491889
 H          2.2741890626        0.5145851223        1.7347748888
 H          2.8689979392        1.4889169278        0.4119567858
 H          3.7749637426       -2.4136813705       -0.8665414547
  14
        -19.98199366
 N          0.0607434546        0.3966490305       -0.5347963459
 C          0.7292508276        0.5240643183        0.7882357036
 C          2.2498761615        0.6089451233        0.6529912908
 C          2.8483793280       -0.5523119850        0.0760911126
 C          3.3315163811       -1.5489285789       -0.4240736213
 Cl        -3.3960801695        0.1141263446       -0.1852059898
 H          0.2656385895        1.2127560189       -1.1338088877
 H         -0.9717101594        0.3187572340       -0.4474983779
 H          0.3968414332       -0.4407491118       -1.0356972251
 H          0.4649035528       -0.3365512534        1.4149309502
 H          0.3390228967        1.4055506995        1.3127960571
 H          2.7083496098        0.7951041043        1.6334994070
 H          2.5091680729        1.4803041607        0.0385120841
 H          3.7543930856       -2.4235052787       -0.8641107177
  14
        -19.98190813
 N          0.0599328969        0.3827137478       -0.5343938393
 C          0.7266496108        0.5176833905        0.7888098848
 C          2.2471195785        0.6066143860        0.6548672267
 C          2.8492439361       -0.5517242782        0.0758548654
 C          3.3368364860       -1.5447565956       -0.4270773821
 Cl        -3.3959526781        0.1224221353       -0.1850984294
 H          0.3960311569       -0.4583862742       -1.0301815912
 H          0.2672705338        1.1974876581       -1.1399859808
 H         -0.9689047638        0.3071387833       -0.4479211139
 H          0.4640590405       -0.3411773889        1.4187025308
 H          0.3334130754        1.4001856338        1.3093811773
 H          2.7042463592        0.7919322159        1.6361226075
 H          2.5047024297        1.4799320160        0.0423990584
 H          3.7627147685       -2.4164989262       -0.8698574286
  14
        -19.98158799
 N         -0.1922972820        1.7890912565       -0.3208688138
 C          1.0311340548        1.1120728012        0.1901493732
 C          1.2777717057       -0.2298858394       -0.4958529621
 C          2.4400297090       -0.9252447538       -0.0398933053
 C          3.4302038171       -1.5087543067        0.3550693468
 Cl        -2.9050465181       -0.3407303172        0.1597746782
 H         -0.3678691708        2.6912604340        0.1526270162
 H         -1.0282858944        1.1904230881       -0.1804472457
 H         -0.1172893156        1.9754178351       -1.3335116485
 H          0.9477121070        0.9616334635        1.2735800641
 H          1.9026770672        1.7634333768        0.0522366640
 H          1.3534731976       -0.0742024196       -1.5794600631
 H          0.3984625229       -0.8723839476       -0.3609557816
 H          4.2991764122       -2.0204785954        0.7020426308
  14
        -19.98141818
 N         -0.1930131813        1.7904952985       -0.3198716097
 C          1.0302297293        1.1130308711        0.1910428350
 C          1.2776193520       -0.2279088502       -0.4966800823
 C          2.4386743179       -0.9246330237       -0.0397458860
 C          3.4272332771       -1.5107149059        0.3553625763
 Cl        -2.9027948552       -0.3420840495        0.1592232367
 H         -1.0261101636        1.1928705917       -0.1819569364
 H         -0.1167854219        1.9800457004       -1.3356763883
 H         -0.3695912005        2.6909369140        0.1553763880
 H          0.9461196106        0.9610149737        1.2742083335
 H          1.9017065021        1.7647879474        0.0546504229
 H          1.3553271117       -0.0704752846       -1.5798921546
 H          0.3977822714       -0.8702534322       -0.3644609110
 H          4.2944982980       -2.0246207348        0.7033601120
  14
        -19.97814548
 N         -0.1955195277        1.1504970275        0.1013126466
 C          0.7171330595       -0.0237259236        0.0323978044
 C          2.1869438997        0.3775510601        0.1355328872
 C          3.1061556482       -0.7149543841        0.0731504032
 C          3.8789644935       -1.6512851093        0.0187824730
 Cl        -3.5311502736        0.1534358240       -0.1469882661
 H         -0.0755566533        1.6615937805        0.9908426870
 H         -1.1940377040        0.8729092375        0.0297956920
 H         -0.0005194570        1.8166022064       -0.6629237627
 H          0.5491387009       -0.5706983561       -0.9035505555
 H          0.4715604499       -0.7328935865        0.8322478032
 H          2.3469609570        0.9294828392        1.0703976690
 H          2.4238396588        1.0929071791       -0.6621105927
 H          4.5562086872       -2.4737312042       -0.0290596528
  14
        -19.97796550
 N         -0.1962037834        1.1471590692        0.1040119485
 C          0.7179804048       -0.0253750217        0.0267410571
 C          2.1867403537        0.3762823053        0.1426220529
 C          3.1075792517       -0.7145024100        0.0744611330
 C          3.8810316441       -1.6500290337        0.0153502233
 Cl        -3.5323623213        0.1555377530       -0.1479992833
 H         -1.1911433406        0.8700780545        0.0282658893
 H          0.0004815721        1.8230022106       -0.6563488969
 H         -0.0788200741        1.6499525460        0.9979871838
 H          0.5556918695       -0.5618513719       -0.9162588887
 H          0.4688739025       -0.7438161089        0.8171656231
 H          2.3406344613        0.9185792774        1.0841224465
 H          2.4275260501        1.1002000946       -0.6460639143
 H          4.5572222819       -2.4731038296       -0.0369675507
  14
        -19.97753936
 N         -0.2194188898        1.8568932536       -0.1943992810
 C          0.9963952174        1.8044312621        0.6621716800
 C          2.0313453854        0.8095579290        0.1352386187
 C          1.6000187751       -0.5517435055        0.1423591062
 C          1.2237679949       -1.7071874971        0.1521972049
 Cl        -2.0868430231       -1.1150706496       -0.3260825246
 H         -0.9070094577        2.5502407032        0.1459056583
 H         -0.6964191929        0.9360424916       -0.2275084365
 H          0.0239848641        2.1083661041       -1.1656139922
 H          0.7116256059        1.5307312571        1.6854806294
 H          1.4341692934        2.8083635225        0.7337212794
 H          2.9598161473        0.8870017175        0.7169130015
 H          2.3061699940        1.0857945935       -0.8905756623
 H          0.8900409451       -2.7200644481        0.1604087500
  14
        -19.97741768
 N         -0.2184696566        1.8542938098       -0.1958621001
 C          0.9958292729        1.8035480016        0.6629680340
 C          2.0328768019        0.8098156370        0.1380834883
 C          1.6021914442       -0.5516919641        0.1427463040
 C          1.2259553670       -1.7071665122        0.1502154203
 Cl        -2.0893211284       -1.1136865844       -0.3261254862
 H         -0.6937945684        0.9362192370       -0.2282140430
 H          0.0273677496        2.1051684833       -1.1706251152
 H         -0.9064804695        2.5476305351        0.1419847480
 H          0.7095146411        1.5297237219        1.6858236340
 H          1.4322597011        2.8080206441        0.7350556497
 H          2.9597035788        0.8873149616        0.7223697293
 H          2.3103771673        1.0870494932       -0.8867488197
 H          0.8939432506       -2.7206212064        0.1565358161
