  14
        -20.07042799
 N          0.1438755943       -1.3076249795       -0.8656902141
 C          0.9710015946       -1.4603826340        0.3650939177
 C          1.3320759738       -0.1093854965        0.9855082492
 C          2.1316810768        0.7204442286        0.1549206767
 C          2.8084113945        1.4163276163       -0.5699982111
 Cl        -2.7322355421        0.4857470062        0.0342616712
 H          0.6475506441       -0.7626746200       -1.5784922059
 H         -0.7302027388       -0.7968430535       -0.6513359760
 H         -0.1118795964       -2.2152423997       -1.2803870029
 H          1.8884220171       -2.0099671400        0.1244719565
 H          0.4340128627       -2.0829213356        1.0917150912
 H          1.8510201258       -0.2595254625        1.9417397745
 H          0.4095786618        0.4285375659        1.2369709209
 H          3.4029545582        2.0274791618       -1.2079311638
