  14
  -20.070427989999999       0.10334140716121466      !gc
 N          0.1438755943       -1.3076249795       -0.8656902141
 C          0.9710015946       -1.4603826340        0.3650939177
 C          1.3320759738       -0.1093854965        0.9855082492
 C          2.1316810768        0.7204442286        0.1549206767
 C          2.8084113945        1.4163276163       -0.5699982111
 Cl        -2.7322355421        0.4857470062        0.0342616712
 H          0.6475506441       -0.7626746200       -1.5784922059
 H         -0.7302027388       -0.7968430535       -0.6513359760
 H         -0.1118795964       -2.2152423997       -1.2803870029
 H          1.8884220171       -2.0099671400        0.1244719565
 H          0.4340128627       -2.0829213356        1.0917150912
 H          1.8510201258       -0.2595254625        1.9417397745
 H          0.4095786618        0.4285375659        1.2369709209
 H          3.4029545582        2.0274791618       -1.2079311638
  14
  -20.070421990000000       0.10268735364285572      !mtd9
 N          0.1144651489       -1.2221822845        0.9944250431
 C          0.9837617362       -1.4969482266       -0.1850497723
 C          1.3608774237       -0.2158499259       -0.9313687531
 C          2.1285880763        0.7022700145       -0.1661867706
 C          2.7785222928        1.4761910642        0.5019015569
 Cl        -2.7226961858        0.4858658316       -0.1599680804
 H         -0.1571007959       -2.0835746977        1.4893687523
 H         -0.7509162983       -0.7372547174        0.6997467916
 H          0.5939158116       -0.6069910814        1.6659100826
 H          0.4745048574       -2.1959309815       -0.8599202984
 H          1.8946212345       -2.0116709566        0.1428355965
 H          0.4452756776        0.2861378060       -1.2689398558
 H          1.9126444174       -0.4615326017       -1.8482959414
 H          3.3494375573        2.1557540974        1.0902857580
  14
  -20.070402560000002       0.10059758433078604      !gc
 N          0.1432612679       -1.3083336909       -0.8664255080
 C          0.9703876728       -1.4593375698        0.3645820563
 C          1.3299302304       -0.1075392528        0.9841451313
 C          2.1316263833        0.7211907908        0.1544695886
 C          2.8107247655        1.4160093456       -0.5692441857
 Cl        -2.7317930407        0.4848023648        0.0352977818
 H         -0.1125912527       -2.2163752699       -1.2796172951
 H          0.6481996996       -0.7628227238       -1.5821901617
 H         -0.7284954717       -0.7987357780       -0.6532370189
 H          1.8884615220       -2.0080248345        0.1244357955
 H          0.4340163492       -2.0819977214        1.0915611818
 H          1.8465506086       -0.2564343127        1.9418291355
 H          0.4068208921        0.4306895609        1.2326780293
 H          3.4074365875        2.0260613811       -1.2062014651
  14
  -20.070396129999999        9.9915422380971730E-002 !gc
 N          0.1161659948       -1.2150923796        0.9948970275
 C          0.9818729337       -1.4918550248       -0.1867396048
 C          1.3622689240       -0.2112585404       -0.9322687003
 C          2.1347401854        0.7030546246       -0.1673155690
 C          2.7880385441        1.4729614057        0.5021304668
 Cl        -2.7289937997        0.4795616091       -0.1589797556
 H         -0.7470752583       -0.7311081969        0.7029418698
 H          0.5994994817       -0.5980901481        1.6661569271
 H         -0.1544381748       -2.0760062331        1.4915187565
 H          0.4684645346       -2.1882352877       -0.8611749710
 H          1.8914921971       -2.0104289980        0.1384953613
 H          0.4478872972        0.2945554239       -1.2674078261
 H          1.9113514163       -0.4578285514       -1.8505618163
 H          3.3622924307        2.1490302716        1.0912848922
  14
  -20.070388489999999        9.9110901798067169E-002 !gc
 N          0.1156324661       -1.2203706245        0.9957118074
 C          0.9824508866       -1.4967620762       -0.1851582704
 C          1.3603084453       -0.2162940484       -0.9322036289
 C          2.1279391912        0.7020519011       -0.1672130083
 C          2.7768840946        1.4755055496        0.5023750925
 Cl        -2.7217053563        0.4855513853       -0.1601333784
 H          0.5968879539       -0.6053722865        1.6657612618
 H         -0.1566264231       -2.0836848796        1.4930341558
 H         -0.7473858571       -0.7360932008        0.7028520673
 H          0.4709233201       -2.1951434422       -0.8589461773
 H          1.8929688155       -2.0129830500        0.1413098468
 H          0.4450397739        0.2859076151       -1.2703604839
 H          1.9122529447       -0.4627892498       -1.8487998518
 H          3.3469037675        2.1548221847        1.0919009108
  14
  -20.070363879999999        9.6563156742828116E-002 !gc
 N          0.1432345810       -1.3010724649       -0.8657736524
 C          0.9715741462       -1.4539466990        0.3641814093
 C          1.3357850523       -0.1030319587        0.9829411432
 C          2.1417065909        0.7217328205        0.1533952983
 C          2.8252517867        1.4144461852       -0.5681642806
 Cl        -2.7432893923        0.4778922507        0.0355298428
 H         -0.7283824372       -0.7922149426       -0.6512510491
 H         -0.1135225804       -2.2111185299       -1.2814317846
 H          0.6462193098       -0.7558283346       -1.5791427202
 H          1.8878226373       -2.0052562951        0.1230693827
 H          0.4343703129       -2.0749738591        1.0919396920
 H          1.8509945588       -0.2531094680        1.9412040070
 H          0.4145478831        0.4389515892        1.2301969615
 H          3.4259546933        2.0222792265       -1.2034925458
  14
  -20.069345899999998        3.2883666763949652E-002 !gc
 N         -0.0887473977        0.2864691386        0.6202689203
 C          0.8014672571       -0.8316508409        0.1961710436
 C          2.2514166729       -0.6129016922        0.6320339231
 C          2.8680107810        0.5307063940        0.0576342234
 C          3.3757463054        1.5129056335       -0.4375330126
 Cl        -3.3766042300       -0.2975596273       -0.4859674867
 H         -0.0923755324        0.3857554547        1.6445881733
 H         -1.0671895948        0.1401595653        0.3120668226
 H          0.2344277970        1.1804635439        0.2254869906
 H          0.7602739515       -0.9375433626       -0.8941717159
 H          0.4184545701       -1.7772895251        0.5998138840
 H          2.8551007647       -1.4986054329        0.3925201014
 H          2.2893936175       -0.5227794920        1.7245977819
 H          3.8209368419        2.3765905092       -0.8731636463
  14
  -20.069337430000001        3.2590250305227060E-002 !md8
 N          0.0679228334       -0.4063344347       -0.5465465411
 C          0.7218355064       -0.4717232822        0.7915679158
 C          2.2442293578       -0.5785673403        0.6861207639
 C          2.8686202811        0.5417806082        0.0754123393
 C          3.3842613700        1.5030313833       -0.4517168814
 Cl        -3.4207080405       -0.1215830941       -0.1844930025
 H          0.4089516966        0.4046906984       -1.0803935711
 H         -0.9622044289       -0.3239413041       -0.4704644122
 H          0.2766316917       -1.2489796593       -1.0996612165
 H          0.3163288771       -1.3208819058        1.3553705735
 H          0.4577910851        0.4208779983        1.3710342414
 H          2.5033823733       -1.4802446846        0.1170766650
 H          2.6817529828       -0.7280148425        1.6820466469
 H          3.8363862751        2.3484192844       -0.9151726560
  14
  -20.069335700000000        3.2530642658887367E-002 !gc
 N         -0.0902242875        0.3074601509        0.6020604414
 C          0.7980699474       -0.8212686779        0.2027376396
 C          2.2458236288       -0.6017370876        0.6453883396
 C          2.8714538549        0.5305199344        0.0584092650
 C          3.3878092993        1.5028900690       -0.4471273965
 Cl        -3.3780024991       -0.3124350861       -0.4820640205
 H          0.2366041176        1.1925638773        0.1911416860
 H         -0.0969664069        0.4269434429        1.6272085995
 H         -1.0654832905        0.1577723206        0.2947768866
 H          0.7641428622       -0.9450894630       -0.8859669739
 H          0.4080876744       -1.7584496258        0.6192160414
 H          2.8474712079       -1.4934245620        0.4235741837
 H          2.2764644661       -0.4952771730        1.7367210137
 H          3.8407634440        2.3580544559       -0.8914932674
  14
  -20.069323189999999        3.2102839324639039E-002 !gc
 N          0.0675920837       -0.4072144253       -0.5446463712
 C          0.7232123500       -0.4747326130        0.7925669773
 C          2.2455315992       -0.5806896479        0.6848446671
 C          2.8678511057        0.5415023307        0.0754170556
 C          3.3814510217        1.5042865449       -0.4508879876
 Cl        -3.4204258932       -0.1195533329       -0.1855208240
 H          0.2755014912       -1.2488656957       -1.0992349914
 H          0.4091266390        0.4068669802       -1.0792595431
 H         -0.9596463398       -0.3250794948       -0.4672521536
 H          0.3188636395       -1.3250254150        1.3554929041
 H          0.4596299581        0.4167821270        1.3739235877
 H          2.5043367675       -1.4809856537        0.1134806138
 H          2.6844801603       -0.7320700443        1.6798354461
 H          3.8321304725        2.3506464609       -0.9140349726
  14
  -20.069321500000001        3.2045479540008623E-002 !md2
 N         -0.0888943116        0.2968403224        0.6076804725
 C          0.8006759095       -0.8286259874        0.2019406140
 C          2.2493640468       -0.6070586707        0.6405195204
 C          2.8692400850        0.5306032262        0.0579016902
 C          3.3811817592        1.5076631069       -0.4430802687
 Cl        -3.3779421873       -0.3041486664       -0.4836677706
 H         -1.0643936734        0.1469751835        0.3019563081
 H          0.2361118561        1.1868224451        0.1983466437
 H         -0.0934560109        0.4118773677        1.6305735873
 H          0.7634525365       -0.9491032045       -0.8870206111
 H          0.4142741715       -1.7680995602        0.6165957647
 H          2.8529956089       -1.4955336018        0.4113325129
 H          2.2838082656       -0.5067462617        1.7323248285
 H          3.8298023768        2.3662283364       -0.8852811471
  14
  -20.069314210000002        3.1799224065484105E-002 !gc
 N          0.0685138775       -0.4138926370       -0.5457832345
 C          0.7232044566       -0.4793645032        0.7919954519
 C          2.2458901419       -0.5810872645        0.6855860486
 C          2.8656883372        0.5423424068        0.0758552109
 C          3.3775252699        1.5059918125       -0.4505767915
 Cl        -3.4188556842       -0.1151558574       -0.1853267877
 H         -0.9586023361       -0.3322701338       -0.4691206438
 H          0.2780817386       -1.2583309144       -1.1010324100
 H          0.4089486878        0.3977761151       -1.0794395492
 H          0.3206921884       -1.3306585981        1.3547158387
 H          0.4567157494        0.4115325809        1.3729811972
 H          2.5077567592       -1.4810756383        0.1151352118
 H          2.6844738920       -0.7303420127        1.6810643347
 H          3.8266911212        2.3533661062       -0.9133335095
  14
  -20.069301530000001        3.1375394731007721E-002 !md5
 N         -0.1880306050       -1.8432439008       -0.0561065859
 C          1.0215634358       -1.0650649815       -0.4520551842
 C          1.2914680668        0.1086365566        0.4881416203
 C          2.4298300228        0.8894827426        0.1487194409
 C          3.4015058035        1.5484879373       -0.1502507571
 Cl        -2.8950046204        0.3937049169        0.0159416013
 H         -0.3799589849       -2.6195259952       -0.7044835832
 H         -1.0214200283       -1.2303140463       -0.0392861829
 H         -0.0791584448       -2.2377077072        0.8879943944
 H          0.9053473412       -0.6935595093       -1.4769226787
 H          1.8972416389       -1.7243147068       -0.4797028358
 H          1.4052195304       -0.2670236112        1.5127515591
 H          0.4068185991        0.7566099461        0.5199308854
 H          4.2558211500        2.1272950021       -0.4131092375
  14
  -20.069271029999999        3.0378922701972056E-002 !md4
 N         -0.1885020134       -1.8468401451       -0.0564117603
 C          1.0197628914       -1.0665553324       -0.4521881984
 C          1.2888428673        0.1062307676        0.4894010936
 C          2.4252730708        0.8895397445        0.1491955055
 C          3.3955039656        1.5500397600       -0.1511421308
 Cl        -2.8893693382        0.3965000083        0.0157874040
 H         -1.0198482680       -1.2362782600       -0.0370952992
 H         -0.0777640059       -2.2443429931        0.8892187762
 H         -0.3805855883       -2.6219709851       -0.7064551647
 H          0.9021809009       -0.6937404071       -1.4764281750
 H          1.8962853929       -1.7246066066       -0.4814581184
 H          1.4042401519       -0.2706841331        1.5133600062
 H          0.4032593033        0.7528422825        0.5230341451
 H          4.2490408689        2.1291571165       -0.4158136334
  14
  -20.069263729999999        3.0145154990616031E-002 !gc
 N         -0.1904570053       -1.8124205828       -0.3011692296
 C          1.0329703381       -1.1242856659        0.2039864040
 C          1.2806984262        0.2108117750       -0.4964245252
 C          2.4352099535        0.9089315522       -0.0485638614
 C          3.4205521825        1.4966010871        0.3407968542
 Cl        -2.9028466828        0.3741328732        0.1529824668
 H         -0.1111044783       -2.0129518934       -1.3071055043
 H         -1.0223067118       -1.2107712106       -0.1725374754
 H         -0.3652027706       -2.7020155571        0.1870232966
 H          1.9062628946       -1.7746059933        0.0769807993
 H          0.9477131709       -0.9604018368        1.2848340235
 H          0.4001286338        0.8534786574       -0.3709563220
 H          1.3581420316        0.0433312468       -1.5776935368
 H          4.2871639727        2.0101723231        0.6860460963
  14
  -20.069261969999999        3.0089064211594657E-002 !gc
 N         -0.1891615512       -1.8472193655       -0.0549775619
 C          1.0190120027       -1.0672346754       -0.4515921590
 C          1.2918074930        0.1026645421        0.4925333452
 C          2.4257063347        0.8882548365        0.1491152099
 C          3.3928017069        1.5529631780       -0.1521028415
 Cl        -2.8890019469        0.3976516303        0.0140902490
 H         -0.0777396663       -2.2441068469        0.8875942073
 H         -0.3829660683       -2.6240194067       -0.7069036363
 H         -1.0203593438       -1.2361283513       -0.0344066111
 H          0.8989326574       -0.6913326188       -1.4744171453
 H          1.8947604455       -1.7261092885       -0.4852109613
 H          1.4124821395       -0.2774517885        1.5147072671
 H          0.4058678668        0.7484487578        0.5325506896
 H          4.2427317342        2.1369050538       -0.4178085674
  14
  -20.069223560000001        2.8890607048044688E-002 !gc
 N         -0.1909936810       -1.8138941294       -0.2993244946
 C          1.0324837093       -1.1251256436        0.2048493507
 C          1.2813850329        0.2082441276       -0.4984344582
 C          2.4335826243        0.9086890865       -0.0482636207
 C          3.4175988272        1.4982148408        0.3415889922
 Cl        -2.9010917067        0.3757263911        0.1522390180
 H         -1.0200375124       -1.2129139950       -0.1735194473
 H         -0.3677141157       -2.7040820661        0.1929227283
 H         -0.1107407808       -2.0177680322       -1.3047364905
 H          1.9054996043       -1.7762376131        0.0800058285
 H          0.9466638836       -0.9586072846        1.2852499472
 H          0.3997927704        0.8504160422       -0.3777238645
 H          1.3627519638        0.0379519684       -1.5789840784
 H          4.2825118316        2.0161690271        0.6845422778
  14
  -20.069218320000001        2.8730853658267434E-002 !gc
 N         -0.1902851867       -1.8133560982       -0.2995522244
 C          1.0335630144       -1.1249432956        0.2042459992
 C          1.2817751048        0.2092308899       -0.4977730334
 C          2.4348452549        0.9087323112       -0.0483898685
 C          3.4194258259        1.4972658875        0.3415553408
 Cl        -2.9031107834        0.3752318305        0.1525128675
 H         -0.3658296438       -2.7015243779        0.1905396039
 H         -0.1107101256       -2.0166844963       -1.3079705514
 H         -1.0195449543       -1.2125670964       -0.1725703564
 H          1.9065333363       -1.7758211003        0.0778442120
 H          0.9487998009       -0.9595700542        1.2849141504
 H          0.4005629310        0.8515421175       -0.3749731633
 H          1.3615116519        0.0402546777       -1.5786440544
 H          4.2842509970        2.0160789459        0.6833625606
  14
  -20.067750010000001        6.0751915402084628E-003 !gc
 N         -0.1879955104       -1.1751959464        0.1105890722
 C          0.7248251463        0.0021120720        0.0317679823
 C          2.1974674399       -0.3907966439        0.1375581066
 C          3.1066611060        0.6998944433        0.0686014083
 C          3.8729817742        1.6363667578        0.0086691744
 Cl        -3.5400133672       -0.1175890211       -0.1467535986
 H          0.0071049511       -1.8433543509       -0.6471443295
 H         -1.1827314594       -0.8958520355        0.0366778798
 H         -0.0681753341       -1.6747686244        1.0023134130
 H          0.4777504445        0.7175684990        0.8248178120
 H          0.5552025033        0.5414597788       -0.9077498283
 H          2.4379978642       -1.1105079844       -0.6549493393
 H          2.3601664086       -0.9359612697        1.0753979922
 H          4.5456777139        2.4602290992       -0.0427927586
  14
  -20.067735339999999        5.9816102222724149E-003 !gc
 N         -0.1885171001       -1.1736717426        0.1109769518
 C          0.7249685284        0.0029590003        0.0294954034
 C          2.1970844409       -0.3901364861        0.1417122384
 C          3.1070830804        0.6996665218        0.0695096111
 C          3.8735546960        1.6358259506        0.0065501135
 Cl        -3.5401106586       -0.1185660499       -0.1471279489
 H         -0.0702003935       -1.6701110267        1.0044280067
 H          0.0079381178       -1.8465237300       -0.6463059923
 H         -1.1803421236       -0.8948359101        0.0350542046
 H          0.4758155896        0.7222551625        0.8184225218
 H          0.5585038119        0.5379391033       -0.9130666321
 H          2.4395134369       -1.1142698172       -0.6461698340
 H          2.3567079972       -0.9303105824        1.0829612385
 H          4.5467268213        2.4590563848       -0.0489677595
  14
  -20.067726629999999        5.9267317487496415E-003 !gc
 N         -0.1879343089       -1.1784481121        0.1100907365
 C          0.7238573192       -0.0003882469        0.0304459822
 C          2.1966771271       -0.3913912909        0.1406613094
 C          3.1047531327        0.7000647476        0.0691678370
 C          3.8695053947        1.6376926904        0.0073640355
 Cl        -3.5375048779       -0.1153038359       -0.1469724608
 H         -1.1798884877       -0.9005823763        0.0353187249
 H         -0.0679717209       -1.6782556201        1.0048674474
 H          0.0083365997       -1.8474964372       -0.6468566132
 H          0.4741913277        0.7168002074        0.8211251774
 H          0.5558963544        0.5363908036       -0.9108359604
 H          2.4395146859       -1.1138410251       -0.6486369024
 H          2.3581002353       -0.9328252222        1.0808771352
 H          4.5408432443        2.4624880153       -0.0470875700
  14
  -20.066328429999999        1.3497304356592085E-003 !gc
 N         -0.2159557044       -1.8705056707       -0.1742155390
 C          0.9981859888       -1.7973280955        0.6884022670
 C          2.0346458130       -0.8075127203        0.1527702482
 C          1.6063271641        0.5467374408        0.1364594891
 C          1.2352428456        1.6999118253        0.1253837964
 Cl        -2.0974580467        1.1223500797       -0.3415978419
 H          0.0340904620       -2.1351572197       -1.1364733057
 H         -0.6935371556       -0.9538229079       -0.2222625177
 H         -0.8980256410       -2.5582411657        0.1759920215
 H          1.4398037944       -2.7973899572        0.7798475975
 H          0.7080355719       -1.5083847620        1.7054768253
 H          2.3179090526       -1.0998877217       -0.8661923243
 H          2.9591786449       -0.8762220855        0.7412688198
 H          0.9075891600        2.7130854870        0.1146638458
  14
  -20.066291310000000        1.2977405355223356E-003 !mtd7
 N         -0.2237447723       -1.8727396575       -0.1546235878
 C          1.0069491782       -1.7987039041        0.6841102689
 C          2.0318109469       -0.8077991534        0.1285087328
 C          1.6057974461        0.5472832832        0.1322728185
 C          1.2366055033        1.7010843893        0.1405271221
 Cl        -2.0963824901        1.1235863280       -0.3438602004
 H         -0.6977485601       -0.9574101057       -0.1994086125
 H         -0.9030538514       -2.5581389491        0.2132333008
 H          0.0071527313       -2.1436817059       -1.1201436101
 H          1.4508600595       -2.7985330127        0.7665061396
 H          0.7369170987       -1.5101982069        1.7068276851
 H          2.2884762817       -1.0942351459       -0.8991363540
 H          2.9708016001       -0.8820281148        0.6929454763
 H          0.9114767057        2.7150959449        0.1485072343
  14
  -20.066287729999999        1.2928335568565912E-003 !gc
 N         -0.2166982682       -1.8712006587       -0.1737092293
 C          0.9977678643       -1.7970046844        0.6883594509
 C          2.0337725681       -0.8074136386        0.1514013338
 C          1.6059339282        0.5470056984        0.1361278811
 C          1.2348868489        1.7002020188        0.1263119355
 Cl        -2.0963975937        1.1224012323       -0.3414526551
 H         -0.8984034540       -2.5585883292        0.1772985720
 H          0.0336559960       -2.1373603191       -1.1386579278
 H         -0.6929596192       -0.9569977545       -0.2221710391
 H          1.4395915454       -2.7969229720        0.7803509703
 H          0.7081022710       -1.5072998680        1.7053620111
 H          2.3153516149       -1.0996664993       -0.8680566888
 H          2.9591836800       -0.8766115648        0.7384509686
 H          0.9078572060        2.7135960945        0.1173156043
  14
  -20.066160709999998        1.1302337349335244E-003 !mtd11
 N         -0.3074603046       -1.8245431501        0.4297571242
 C          1.1069044420       -1.8635468683       -0.0412371374
 C          1.9635666382       -0.7670606927        0.5950224369
 C          1.5835823026        0.5569683903        0.2482022965
 C          1.2553993964        1.6834835828       -0.0532594320
 Cl        -2.0679825298        1.1129487060       -0.4912551347
 H         -0.8729490409       -2.5800618104        0.0175754116
 H         -0.7569704632       -0.9265461464        0.1805026338
 H         -0.3552550944       -1.9165810598        1.4536283159
 H          1.1326375565       -1.7605450234       -1.1322704698
 H          1.5340632219       -2.8513732518        0.1726066216
 H          3.0188087506       -0.9109233735        0.3262069432
 H          1.9265455093       -0.8700092635        1.6864869688
 H          0.9652929384        2.6728876643       -0.3195640873
  14
  -20.066127659999999        1.0913889126641920E-003 !md4
 N         -0.3065140668       -1.8261149098        0.4200364245
 C          1.1119755343       -1.8643890773       -0.0385032979
 C          1.9619708412       -0.7658831557        0.6031811753
 C          1.5850429222        0.5568099284        0.2480545506
 C          1.2609385150        1.6833802454       -0.0576221249
 Cl        -2.0724538690        1.1136632607       -0.4895755338
 H         -0.7532502940       -0.9308484721        0.1683733575
 H         -0.3632578449       -1.9185461770        1.4462126682
 H         -0.8681835748       -2.5820345612        0.0027791083
 H          1.1474046328       -1.7632353230       -1.1294334258
 H          1.5380917422       -2.8514510046        0.1808612123
 H          3.0198744685       -0.9103207068        0.3453713580
 H          1.9140013571       -0.8654761185        1.6945300834
 H          0.9767935070        2.6745919328       -0.3235694875
  14
  -20.061768839999999        1.0834392411203151E-005 !gc
 N          0.9515265451       -1.9693774638       -0.0597160689
 C          0.4300330425       -0.8011793331       -0.8261560531
 C          0.7619848242        0.5298359803       -0.1488194805
 C          2.1519719627        0.8048299075       -0.0478689551
 C          3.3412758051        1.0204854738        0.0344733726
 Cl        -2.8807472419        0.4043611188        0.4181782015
 H          0.7327478712       -2.8633249061       -0.5202887766
 H          0.5483897182       -1.9939749665        0.8891460353
 H          1.9729887723       -1.9080395914        0.0431147384
 H         -0.6542968681       -0.9036478450       -0.9564536608
 H          0.8512755901       -0.8100164261       -1.8384440152
 H          0.3264166752        0.5397659513        0.8582291734
 H          0.2756138956        1.3565481162       -0.6832865544
 H          4.3868480473        1.2090479810        0.1066622542
  14
  -20.061688260000000        9.9488425383306938E-006 !gc
 N          0.9588511789       -1.9852063150       -0.0208590032
 C          0.4431191464       -0.8440387648       -0.8305472769
 C          0.7434606615        0.5080255007       -0.1807195278
 C          2.1273492482        0.8034021325       -0.0562889403
 C          3.3117240626        1.0360642891        0.0478935488
 Cl        -2.8630174845        0.4323956096        0.4119885287
 H          0.5348799619       -1.9882799620        0.9159060698
 H          1.9796335280       -1.9096815718        0.1044464089
 H          0.7601599496       -2.8938545579       -0.4617635292
 H         -0.6365004431       -0.9629442562       -0.9841793568
 H          0.8891290214       -0.8744939082       -1.8317409879
 H          0.2854634390        0.5378312810        0.8159775199
 H          0.2589728308        1.3144586595       -0.7469297619
 H          4.3532031359        1.2392044910        0.1375833009
  14
  -20.061547999999998        8.5765677825904027E-006 !hor
 N          0.9694778363       -2.0065310613        0.0354402052
 C          0.4620218110       -0.9067078518       -0.8345174173
 C          0.7170129827        0.4744311138       -0.2279539119
 C          2.0904386742        0.7998928487       -0.0679114529
 C          3.2661480847        1.0593449494        0.0667130681
 Cl        -2.8357650581        0.4734000896        0.4023337965
 H          0.8012808966       -2.9345684728       -0.3763273700
 H          0.5132548370       -1.9815623781        0.9599482778
 H          1.9813544898       -1.9079883631        0.1906405893
 H         -0.6095723505       -1.0511690786       -1.0193733405
 H          0.9422208272       -0.9668758942       -1.8183980630
 H          0.2242527247        0.5341134556        0.7506422204
 H          0.2389299924        1.2496326189       -0.8412772525
 H          4.2998282681        1.2862144669        0.1850969430
  14
  -20.061397110000001        7.3108737049538811E-006 !md7
 N          1.0330388554       -2.0358468797       -0.1030942307
 C          0.4240552940       -0.8666965547       -0.8003577014
 C          0.7282001635        0.4533586965       -0.0892426093
 C          2.1068628948        0.7934091637       -0.0496046658
 C          3.2869106455        1.0663259015       -0.0222085173
 Cl        -2.8688317357        0.4796683645        0.4264056889
 H          0.8360834768       -2.9213997901       -0.5887986319
 H          0.6736314082       -2.1152954558        0.8601448356
 H          2.0540247000       -1.9290789968       -0.0412322707
 H         -0.6595963750       -1.0148418916       -0.8845030861
 H          0.7964795835       -0.8200383847       -1.8305900070
 H          0.3471841536        0.4045502876        0.9385911382
 H          0.1751488151        1.2740682783       -0.5648783678
 H          4.3243920851        1.3051266460        0.0021152311
  14
  -20.061366469999999        7.0776341945778873E-006 !hor
 N          1.0285470293       -2.0358243484       -0.0579734582
 C          0.4402988696       -0.8908715031       -0.8110733937
 C          0.7212172462        0.4522460826       -0.1344751923
 C          2.0980295015        0.7934288083       -0.0578661931
 C          3.2764569348        1.0676575336        0.0040335479
 Cl        -2.8634992988        0.4891994600        0.4202775891
 H          2.0472131185       -1.9266969262        0.0291188131
 H          0.8445906713       -2.9401248546       -0.5201199860
 H          0.6430504140       -2.0823182223        0.8943082488
 H         -0.6401522850       -1.0435641110       -0.9235399267
 H          0.8441260944       -0.8770355713       -1.8303586130
 H          0.3043574498        0.4380337566        0.8804335707
 H          0.1860601621        1.2564787235       -0.6564940967
 H          4.3124393726        1.3079926766        0.0584740329
  14
  -20.061371919999999        7.1185699849507406E-006 !md3
 N          1.5922152602       -2.8081174885       -0.7761763256
 C          2.2263799911       -2.2248309755        0.4411799251
 C          2.3795774898       -0.7058587314        0.3418147361
 C          1.1506545342        0.0005022042        0.2481493765
 C          0.0927751323        0.5844481770        0.1637154151
 Cl        -3.0149738851        2.2935880831       -0.0823451793
 H          2.1580674814       -2.6119946134       -1.6120123748
 H          0.6601280128       -2.3957294271       -0.9328161421
 H          1.4785541770       -3.8284375485       -0.7023441707
 H          3.2020798517       -2.6975976810        0.6081317680
 H          1.6230899499       -2.4731373095        1.3224667036
 H          2.9942462115       -0.4622872802       -0.5338532550
 H          2.9412126577       -0.3259818035        1.2054742800
 H         -0.8385087744        1.0959454615        0.0889413776
  14
  -20.061363940000000        7.0587110612343783E-006 !mtd6
 N          1.5932142524       -2.8112111707       -0.7743158968
 C          2.2294109469       -2.2238895884        0.4400450002
 C          2.3797298204       -0.7049194428        0.3364190408
 C          1.1492433362       -0.0006123656        0.2478171630
 C          0.0903787557        0.5821224719        0.1675745145
 Cl        -3.0154876222        2.2955374031       -0.0819258798
 H          1.4813944746       -3.8313255156       -0.6977195066
 H          2.1583012439       -2.6157202519       -1.6144944726
 H          0.6625488009       -2.4018119850       -0.9291373774
 H          3.2063201395       -2.6945994840        0.6056583603
 H          1.6289551999       -2.4709964732        1.3235996479
 H          2.9891891274       -0.4624780654       -0.5432001498
 H          2.9455251107       -0.3221730884        1.1960841018
 H         -0.8417371237        1.0928952582        0.0983895249
  14
  -20.061323569999999        6.7635178036424084E-006 !mtd6
 N          1.2086981051       -2.0939583615       -0.5306343291
 C          0.3188053852       -0.8973575076       -0.5392116517
 C          0.8332529905        0.2130938527        0.3788677690
 C          2.0931419451        0.7491003501        0.0003529033
 C          3.1709316007        1.1907221943       -0.3328250786
 Cl        -2.9062179274        0.5849386743        0.4384715829
 H          2.1585762995       -1.8407634696       -0.8319836561
 H          0.8644774223       -2.8378995673       -1.1576556209
 H          1.2822706570       -2.4870488437        0.4168555350
 H         -0.6961434691       -1.1944943568       -0.2479908122
 H          0.2317502670       -0.5131431855       -1.5624757842
 H          0.9067532105       -0.1719895796        1.4037004378
 H          0.1020065731        1.0307180958        0.4279646321
 H          4.1195638472        1.5765793762       -0.6247055340
  14
  -20.061274500000000        6.4212802838771505E-006 !md6
 N          1.0357450397       -2.0472943921       -0.0419884752
 C          0.4445208265       -0.9152572522       -0.8120297031
 C          0.7065002222        0.4366497394       -0.1454514490
 C          2.0792916547        0.7919375423       -0.0615114722
 C          3.2547018460        1.0775406930        0.0061114141
 Cl        -2.8485040274        0.5074712788        0.4178745057
 H          2.0518255363       -1.9253448857        0.0577430802
 H          0.8686008758       -2.9571589204       -0.4995485496
 H          0.6381531950       -2.0913030764        0.9054726272
 H         -0.6332557593       -1.0790610692       -0.9341476804
 H          0.8588492776       -0.9072400766       -1.8271636364
 H          0.2819676149        0.4273096676        0.8663164404
 H          0.1676099522        1.2308727562       -0.6788352879
 H          4.2880604814        1.3278318114        0.0652491666
  14
  -20.061128640000000        5.5028669463785302E-006 !hor
 N          1.2579002993       -2.1345849877       -0.5875800680
 C          0.3050184955       -0.9942490331       -0.4624906961
 C          0.8347795862        0.1041570438        0.4613666586
 C          2.0251472642        0.7303971378        0.0045111241
 C          3.0425230483        1.2513617570       -0.3970479950
 Cl        -2.8548986824        0.6701571981        0.4247262639
 H          2.1623336026       -1.8117712632       -0.9549745079
 H          0.9028306571       -2.8689539146       -1.2198490476
 H          1.4352228607       -2.5648105914        0.3295811549
 H         -0.6624297363       -1.3640982293       -0.1011012105
 H          0.1075432700       -0.5716807828       -1.4548228594
 H          1.0183713736       -0.3196136775        1.4566456905
 H          0.0662142802        0.8738213048        0.6114577538
 H          3.9368627770        1.7091561667       -0.7499822409
