  21
  -22.497709019999999       0.24767212750581899      !mtd4
 N         -1.8856244472        0.0000293010        0.7720297719
 C         -1.0941897034        0.0001384285       -0.5017044833
 C         -0.2301887962        1.2736620437       -0.6361553248
 C          0.9723922802        1.2702364890        0.3244971655
 C          1.8239412375       -0.0003765810        0.1592223525
 C          0.9716460232       -1.2704188554        0.3246781828
 C         -0.2303282059       -1.2733411298       -0.6366293761
 H         -2.4927201883        0.8292062313        0.8362923377
 H         -1.2713688244        0.0016790939        1.5973100496
 H         -2.4901986427       -0.8308807626        0.8375820873
 H         -1.8288357485        0.0003566012       -1.3281483137
 H         -0.8538545196        2.1579502724       -0.4585736289
 H          0.1276691841        1.3687564615       -1.6672923809
 H          0.6201250350        1.3443837371        1.3594902701
 H          1.5889359222        2.1652451139        0.1673794128
 H          2.6588612715       -0.0006219494        0.8722848050
 H          2.2901412966       -0.0006020442       -0.8326580082
 H          0.6185296086       -1.3434426270        1.3594740887
 H          1.5875313538       -2.1660753194        0.1687765465
 H         -0.8542263852       -2.1577355582       -0.4604618451
 H          0.1285166174       -1.3674394641       -1.6675131643
  21
  -22.497686000000002       0.24171181265060232      !mtd4
 N         -1.8869379655        0.0001461526        0.7713130574
 C         -1.0940768090        0.0001904914       -0.5015340832
 C         -0.2301338977        1.2737919955       -0.6355044162
 C          0.9728306032        1.2701063913        0.3246632619
 C          1.8244360416       -0.0002869511        0.1584271529
 C          0.9723698421       -1.2703717326        0.3245708555
 C         -0.2304190336       -1.2735625056       -0.6357932850
 H         -1.2738543094       -0.0001421960        1.5967588551
 H         -2.4934153545       -0.8302156403        0.8353766563
 H         -2.4927595758        0.8302345899        0.8356988324
 H         -1.8279724436        0.0003549431       -1.3286488485
 H         -0.8538723765        2.1578430059       -0.4570499818
 H          0.1273743250        1.3696327040       -1.6666814478
 H          0.6208765632        1.3435716128        1.3598247930
 H          1.5891290278        2.1653315636        0.1678071001
 H          2.6598676457       -0.0004719558        0.8709051080
 H          2.2898234119       -0.0003394206       -0.8338548839
 H          0.6202289938       -1.3437050751        1.3596911728
 H          1.5883314919       -2.1658733994        0.1679249421
 H         -0.8543460188       -2.1576008608       -0.4578855686
 H          0.1272856799       -1.3690742081       -1.6669394117
  21
  -22.497681340000000       0.24052282025133057      !mtd1
 N         -1.8871227291        0.0002136830        0.7711798664
 C         -1.0940368059        0.0001842735       -0.5015462233
 C         -0.2300931173        1.2737960619       -0.6354080643
 C          0.9728307608        1.2700190895        0.3247874650
 C          1.8244986208       -0.0002540622        0.1582157807
 C          0.9725332149       -1.2703652590        0.3245333416
 C         -0.2304506061       -1.2736551266       -0.6356050707
 H         -2.4933947494       -0.8296065295        0.8350656711
 H         -2.4933384915        0.8307438150        0.8354681328
 H         -1.2742581703       -0.0000835173        1.5968144244
 H         -1.8277586386        0.0003749864       -1.3288234993
 H         -0.8538456206        2.1578215721       -0.4568309748
 H          0.1273950528        1.3698120371       -1.6665779584
 H          0.6207850986        1.3430891831        1.3599471842
 H          1.5890402113        2.1653706018        0.1683016969
 H          2.6602438344       -0.0004228988        0.8703240880
 H          2.2895033197       -0.0002034009       -0.8342462472
 H          0.6205429987       -1.3436168805        1.3597135938
 H          1.5885305004       -2.1658202523        0.1677904098
 H         -0.8544285149       -2.1575335936       -0.4571275420
 H          0.1269669182       -1.3696172479       -1.6668013494
  21
  -22.496758020000001        9.0537353436715276E-002 !mtd4
 N         -2.4304156786        0.0003104708        0.1041431122
 C         -0.9868293269        0.0001751279       -0.3086375535
 C         -0.2609511039        1.2658029725        0.1857657713
 C          1.2216149665        1.2711088192       -0.2309008473
 C          1.9445332607       -0.0002659647        0.2506619166
 C          1.2213174542       -1.2714177524       -0.2310499189
 C         -0.2612800626       -1.2657590836        0.1856139279
 H         -2.9237490713       -0.8309302142       -0.2499355827
 H         -2.9241278127        0.8316824110       -0.2507302979
 H         -2.5172332893        0.0005082703        1.1292226463
 H         -0.9539872036        0.0000877090       -1.4110657750
 H         -0.3384516341        1.3129976237        1.2765365377
 H         -0.7751930473        2.1612892067       -0.1825356857
 H          1.7254544520        2.1691961154        0.1514478520
 H          1.2941110320        1.3408864115       -1.3220040397
 H          1.9927158441       -0.0002825932        1.3453424921
 H          2.9895049398       -0.0004086637       -0.0863742404
 H          1.7250286742       -2.1695602858        0.1513821054
 H          1.2937877982       -1.3413068119       -1.3221513762
 H         -0.3384643123       -1.3130339536        1.2764103540
 H         -0.7756603123       -2.1611988273       -0.1826031014
  21
  -22.496748620000002        8.9641239753503396E-002 !mtd3
 N         -2.4309258713        0.0003427901        0.1015023919
 C         -0.9864762441        0.0001814112       -0.3076273242
 C         -0.2608407387        1.2654172246        0.1880046484
 C          1.2211572913        1.2713666136       -0.2308516382
 C          1.9452584823       -0.0002245994        0.2484953837
 C          1.2209018853       -1.2716857527       -0.2308465377
 C         -0.2612208254       -1.2654343228        0.1876500474
 H         -2.9230225487        0.8317953520       -0.2538054169
 H         -2.5204915727       -0.0004445963        1.1268800164
 H         -2.9235905974       -0.8301941216       -0.2551615081
 H         -0.9509913077        0.0003475881       -1.4099815834
 H         -0.3365936969        1.3104710782        1.2789890732
 H         -0.7757434137        2.1614911479       -0.1778614063
 H          1.7253485091        2.1692799843        0.1514379624
 H          1.2919259030        1.3420894865       -1.3220012362
 H          1.9970345814       -0.0002196249        1.3430327759
 H          2.9892582269       -0.0003098813       -0.0916390830
 H          1.7248220332       -2.1696417190        0.1517481441
 H          1.2919853483       -1.3426879886       -1.3219533698
 H         -0.3373026751       -1.3110410219        1.2785848729
 H         -0.7762774310       -2.1611778481       -0.1788045874
  21
  -22.496747570000000        8.9541694273945080E-002 !mtd3
 N         -2.4308638036        0.0003039267        0.1018433052
 C         -0.9865227549        0.0001478281       -0.3077421875
 C         -0.2608834831        1.2655077173        0.1876099377
 C          1.2212660685        1.2713589546       -0.2307567224
 C          1.9451684075       -0.0002731253        0.2487752057
 C          1.2209140755       -1.2716294259       -0.2309489762
 C         -0.2612064335       -1.2654445265        0.1874959600
 H         -2.5200144164        0.0002866280        1.1267078953
 H         -2.9237533370       -0.8310809834       -0.2541613497
 H         -2.9232228733        0.8314085450       -0.2539332535
 H         -0.9513556950        0.0001932465       -1.4101036088
 H         -0.3370153765        1.3110572587        1.2785470239
 H         -0.7756448078        2.1614440329       -0.1787933465
 H          1.7253767370        2.1691902296        0.1518438221
 H          1.2924939501        1.3422545791       -1.3218590054
 H          1.9965178007       -0.0003649925        1.3433329353
 H          2.9892988004       -0.0004040788       -0.0909621631
 H          1.7248413205       -2.1696990978        0.1513592723
 H          1.2920108479       -1.3422627078       -1.3220787885
 H         -0.3373011841       -1.3110535550        1.2784314666
 H         -0.7762089637       -2.1612294676       -0.1789400827
  21
  -22.489598900000001        4.6422020951566827E-005 !mtd5
 N         -1.8307655964       -0.1381432792        0.8437799814
 C         -1.1021353312        0.0384484360       -0.4550029580
 C         -0.3020177895        1.3733772842       -0.4776632659
 C          1.2220115527        1.1882417183       -0.2852247576
 C          1.5365633073        0.0574325238        0.7089027859
 C          0.9919014203       -1.3091189620        0.2190608917
 C         -0.1991512484       -1.1778633859       -0.7618636408
 H         -2.4838488568        0.6387982965        1.0179693224
 H         -1.1773492902       -0.1783036246        1.6374290959
 H         -2.3800986413       -1.0089765335        0.8497390277
 H         -1.8781639362        0.0931309225       -1.2399439357
 H         -0.6918586188        2.0270316781        0.3090888362
 H         -0.4932393042        1.9067568933       -1.4162929510
 H          1.6855011306        2.1280038672        0.0436017984
 H          1.6886756480        0.9589671003       -1.2496536149
 H          1.0959347081        0.3072432126        1.6800269705
 H          2.6166473174       -0.0026364427        0.8942146995
 H          0.6971739321       -1.9229156815        1.0787454821
 H          1.8007072748       -1.8707364466       -0.2639446976
 H         -0.8027491779       -2.0927716028       -0.7454665115
 H          0.1771202943       -1.0958603138       -1.7874095720
  21
  -22.489589110000001        4.5943583981882448E-005 !mtd3
 N         -1.8320529370       -0.1388627176        0.8429652454
 C         -1.1021293948        0.0386852236       -0.4549199887
 C         -0.3019425997        1.3736743174       -0.4759030405
 C          1.2223519935        1.1879490753       -0.2864396032
 C          1.5380950815        0.0575607152        0.7078086604
 C          0.9912916246       -1.3090336603        0.2202532576
 C         -0.1988881641       -1.1774796158       -0.7616002015
 H         -2.3827510538       -1.0088553511        0.8470788664
 H         -2.4844742083        0.6391999593        1.0180393323
 H         -1.1793874359       -0.1813567277        1.6364010466
 H         -1.8773865778        0.0939264883       -1.2405673462
 H         -0.6903856561        2.0256874010        0.3129197679
 H         -0.4946461095        1.9091318300       -1.4130401852
 H          1.6869316052        2.1276707310        0.0409231970
 H          1.6870980317        0.9580077405       -1.2516360724
 H          1.0994954332        0.3085085679        1.6795565419
 H          2.6185198761       -0.0031333441        0.8910528178
 H          0.6949540593       -1.9207206024        1.0808940022
 H          1.7993603146       -1.8730132187       -0.2612220769
 H         -0.8025276455       -2.0923836309       -0.7460382294
 H          0.1783959295       -1.0949321263       -1.7867334259
  21
  -22.489559960000001        4.4548025368571956E-005 !mtd5
 N         -1.8340696563        0.1394257079        0.8418530620
 C         -1.1020875051       -0.0384985269       -0.4548487621
 C         -0.1984739262        1.1777168306       -0.7605956568
 C          0.9918274283        1.3086434258        0.2211600770
 C          1.5397688740       -0.0582632842        0.7066081809
 C          1.2224005375       -1.1878831680       -0.2879537645
 C         -0.3021913420       -1.3737826315       -0.4738915658
 H         -2.3829428601        1.0105896539        0.8452269795
 H         -1.1827975800        0.1796769959        1.6373009774
 H         -2.4880625470       -0.6370691513        1.0147170865
 H         -1.8759525245       -0.0939720894       -1.2418424806
 H         -0.8019803989        2.0926943956       -0.7440742317
 H          0.1784791058        1.0962151060       -1.7859114422
 H          0.6953628631        1.9188909780        1.0827731984
 H          1.7993419481        1.8738983989       -0.2597794366
 H          1.1030901827       -0.3100359108        1.6790360588
 H          2.6204849881        0.0024136841        0.8881661146
 H          1.6881289409       -2.1277633795        0.0375013921
 H          1.6848373219       -0.9570099145       -1.2540511030
 H         -0.6890387947       -2.0234145722        0.3176723076
 H         -0.4971092207       -1.9121992931       -1.4088979876
  21
  -22.489559960000001        4.4548025368571956E-005 !mtd2
 N         -1.8338094859        0.1392461626        0.8420793241
 C         -1.1020659586       -0.0384758073       -0.4547737695
 C         -0.1986644405        1.1778649279       -0.7605613649
 C          0.9921836283        1.3086413131        0.2206611337
 C          1.5393214962       -0.0582110847        0.7069916661
 C          1.2223708394       -1.1880457042       -0.2874709824
 C         -0.3021510179       -1.3736955456       -0.4745652295
 H         -2.4867036480       -0.6379581311        1.0158201385
 H         -2.3842372769        1.0100791403        0.8456014439
 H         -1.1823912792        0.1809811720        1.6365854566
 H         -1.8762637195       -0.0938014998       -1.2414633213
 H         -0.8022072978        2.0928034709       -0.7435240210
 H          0.1777736582        1.0966883655       -1.7860987857
 H          0.6964911264        1.9198070364        1.0818907150
 H          1.7999462008        1.8729036478       -0.2610058162
 H          1.1017465691       -0.3095306475        1.6791158143
 H          2.6199658201        0.0021830266        0.8890508796
 H          1.6875123878       -2.1279377274        0.0386832900
 H          1.6855113934       -0.9574320916       -1.2532808343
 H         -0.6895722821       -2.0241514556        0.3160333034
 H         -0.4963723037       -1.9109576276       -1.4103668979
  21
  -22.489556149999999        4.4368781672303544E-005 !mtd3
 N         -1.8344135547        0.1393875676        0.8417143475
 C         -1.1020341186       -0.0385591633       -0.4547429900
 C         -0.1986067769        1.1778479412       -0.7603363576
 C          0.9922278272        1.3085931332        0.2208819499
 C          1.5396999845       -0.0583378524        0.7067139349
 C          1.2225325230       -1.1877999728       -0.2880517086
 C         -0.3020680773       -1.3738199328       -0.4737639241
 H         -1.1832689888        0.1801608956        1.6364837077
 H         -2.4885442336       -0.6376002263        1.0150107125
 H         -2.3835134173        1.0103846266        0.8452016832
 H         -1.8757832752       -0.0941603896       -1.2418429884
 H         -0.8022070607        2.0927477569       -0.7430779792
 H          0.1777665818        1.0969509373       -1.7859160156
 H          0.6965261896        1.9194337516        1.0823456385
 H          1.7998488280        1.8731395311       -0.2607092288
 H          1.1021344709       -0.3099845823        1.6787576242
 H          2.6203454312        0.0021179638        0.8887190980
 H          1.6885066427       -2.1276311078        0.0371132006
 H          1.6845618802       -0.9563741701       -1.2542022889
 H         -0.6887712480       -2.0233477947        0.3179563302
 H         -0.4970266176       -1.9122910534       -1.4087246177
  21
  -22.489552239999998        4.4185583239110956E-005 !mtd3
 N         -1.8347098062       -0.1392023855        0.8415376104
 C         -1.1020454647        0.0389719259       -0.4547046391
 C         -0.3017217181        1.3740146531       -0.4732817145
 C          1.2228721237        1.1875844585       -0.2878684375
 C          1.5401460721        0.0577563875        0.7064670811
 C          0.9916990323       -1.3089011683        0.2209021121
 C         -0.1988540290       -1.1775242440       -0.7605537423
 H         -1.1838207760       -0.1809546922        1.6364816967
 H         -2.3850020927       -1.0101308363        0.8445374796
 H         -2.4878811889        0.6378631211        1.0148793999
 H         -1.8757306306        0.0949428083       -1.2418548008
 H         -0.6882290336        2.0234557237        0.3185967912
 H         -0.4966183290        1.9127547613       -1.4080922408
 H          1.6890519470        2.1272145761        0.0375295421
 H          1.6847281568        0.9564995464       -1.2541820595
 H          1.1034367151        0.3094770888        1.6788789699
 H          2.6208994015       -0.0032815622        0.8876313049
 H          0.6954255186       -1.9193509165        1.0824466665
 H          1.7989874722       -1.8741615730       -0.2604018707
 H         -0.8026431323       -2.0923091716       -0.7440494088
 H          0.1779809423       -1.0960669153       -1.7859259609
  21
  -22.488681969999998        1.7592687629597116E-005 !mtd2
 N         -2.2491761275        0.1689894773        0.4714113226
 C         -1.0652455975       -0.0808869843       -0.4158530206
 C         -0.1917849549        1.1976243527       -0.5467179922
 C          0.9887080815        1.2002815799        0.4425923837
 C          1.9481654650        0.0071201605        0.2014381857
 C          1.2217471723       -1.2371329982       -0.3697221651
 C         -0.2471762261       -1.2983845956        0.0878843810
 H         -2.8373990834       -0.6717052749        0.5558878038
 H         -2.8428089596        0.9273958948        0.1059063053
 H         -1.9500129702        0.4364014502        1.4186863388
 H         -1.4592855564       -0.3310040946       -1.4159283374
 H         -0.8188642092        2.0838326813       -0.3989562416
 H          0.1971306230        1.2806843607       -1.5673391561
 H          0.5970397043        1.1543707151        1.4651440851
 H          1.5348976310        2.1503623676        0.3862277004
 H          2.4516473377       -0.2588272557        1.1383699853
 H          2.7521888647        0.3124687706       -0.4786909960
 H          1.7518777734       -2.1573573435       -0.0913171626
 H          1.2506632231       -1.2075202708       -1.4646056579
 H         -0.2846056076       -1.3129510515        1.1813166978
 H         -0.7181316039       -2.2356161023       -0.2312427702
  21
  -22.488659980000001        1.7188037291905846E-005 !mtd5
 N         -2.2536070623        0.1671940127        0.4657820836
 C         -1.0642890338       -0.0810644995       -0.4147225437
 C         -0.1925370847        1.1991498340       -0.5425369680
 C          0.9912892496        1.1996160492        0.4429115069
 C          1.9505486173        0.0078033103        0.1950866260
 C          1.2211869474       -1.2384783115       -0.3681859372
 C         -0.2463877644       -1.2963066910        0.0940942647
 H         -2.8466029443        0.9234266777        0.0962941706
 H         -1.9601733616        0.4363952770        1.4149477351
 H         -2.8403998757       -0.6747391174        0.5478658635
 H         -1.4526707058       -0.3331067584       -1.4165268050
 H         -0.8203761999        2.0838356681       -0.3890208821
 H          0.1930884661        1.2872836309       -1.5639841278
 H          0.6032819004        1.1506449577        1.4667217914
 H          1.5368286091        2.1501234611        0.3872752500
 H          2.4624156908       -0.2560499399        1.1280657251
 H          2.7482635796        0.3136038887       -0.4922219371
 H          1.7513813698       -2.1579651135       -0.0875410400
 H          1.2464822827       -1.2136676513       -1.4632755348
 H         -0.2808977750       -1.3043716993        1.1876780822
 H         -0.7190227213       -2.2349306850       -0.2183086629
  21
  -22.488659259999999        1.7174946708822723E-005 !mtd2
 N         -2.2535924810       -0.1667087552        0.4657826595
 C         -1.0642659090        0.0814022101       -0.4147443951
 C         -0.2460523450        1.2963786552        0.0942018580
 C          1.2215294517        1.2381743806       -0.3680032914
 C          1.9505063582       -0.0083315727        0.1952585191
 C          0.9909258334       -1.1999597271        0.4427573478
 C         -0.1928125829       -1.1989925520       -0.5427984191
 H         -2.8467617245       -0.9228119486        0.0963055644
 H         -2.8405564742        0.6757720461        0.5480409768
 H         -1.9602917256       -0.4358829274        1.4143934969
 H         -1.4526630904        0.3336787394       -1.4164832179
 H         -0.2806132653        1.3043669587        1.1877847282
 H         -0.7184049231        2.2351602080       -0.2181508710
 H          1.7519570888        2.1574938830       -0.0872946968
 H          1.2468739996        1.2133950662       -1.4630924875
 H          2.4622520221        0.2552996467        1.1283665803
 H          2.7482838007       -0.3142269378       -0.4919351451
 H          0.6028317147       -1.1510945921        1.4665515272
 H          1.5362271417       -2.1505949607        0.3869822048
 H         -0.8208696685       -2.0835730508       -0.3895691276
 H          0.1928939364       -1.2869519628       -1.5642319042
  21
  -22.488658829999999        1.7167133477355376E-005 !mtd1
 N         -2.2536621696        0.1671640068        0.4657205865
 C         -1.0642728174       -0.0810553344       -0.4147006656
 C         -0.1925524926        1.1991869973       -0.5424709919
 C          0.9913456551        1.1996339294        0.4428965542
 C          1.9505788806        0.0078100899        0.1950296051
 C          1.2211883372       -1.2384962264       -0.3681462236
 C         -0.2463824685       -1.2962859139        0.0941547041
 H         -1.9603506243        0.4364474945        1.4142967245
 H         -2.8406618706       -0.6752895852        0.5480054021
 H         -2.8467427110        0.9232557045        0.0960779448
 H         -1.4525999243       -0.3331002683       -1.4165252117
 H         -0.8204208041        2.0838258021       -0.3888015034
 H          0.1929872689        1.2874406051       -1.5639396262
 H          0.6034223915        1.1507135905        1.4667409032
 H          1.5369131800        2.1501204826        0.3871671395
 H          2.4625154429       -0.2560121097        1.1279800714
 H          2.7482457965        0.3135858655       -0.4923465922
 H          1.7513758079       -2.1579651531       -0.0874271388
 H          1.2464763747       -1.2137749543       -1.4632382050
 H         -0.2808937845       -1.3043340834        1.1877376671
 H         -0.7190245322       -2.2348938719       -0.2182860845
  21
  -22.488658770000001        1.7166043541670237E-005 !mtd3
 N         -2.2536701864       -0.1666662206        0.4656940039
 C         -1.0642514632        0.0814200799       -0.4147192090
 C         -0.2460308916        1.2963504633        0.0943150902
 C          1.2215125339        1.2381924656       -0.3679998515
 C          1.9505417957       -0.0083171367        0.1951825792
 C          0.9909816209       -1.1999506999        0.4427484169
 C         -0.1928325441       -1.1990084225       -0.5427235362
 H         -1.9604325424       -0.4358877909        1.4143101140
 H         -2.8471552552       -0.9231280768        0.0959016147
 H         -2.8402493771        0.6754068848        0.5478685507
 H         -1.4525420600        0.3337350744       -1.4164893023
 H         -0.2805147072        1.3042086897        1.1879020650
 H         -0.7184190178        2.2351715531       -0.2178648853
 H          1.7519459050        2.1575230505       -0.0873388845
 H          1.2467662789        1.2134149343       -1.4630915605
 H          2.4623642487        0.2553074924        1.1282505393
 H          2.7482675052       -0.3141999190       -0.4920774306
 H          0.6029602932       -1.1510845835        1.4665702472
 H          1.5362908573       -2.1505787080        0.3869339927
 H         -0.8209087625       -2.0835532807       -0.3893682141
 H          0.1927898944       -1.2870792421       -1.5641786576
  21
  -22.488629769999999        1.6647258852589826E-005 !mtd5
 N         -2.2581265022       -0.1647244475        0.4598959691
 C         -1.0632530252        0.0815430509       -0.4136037601
 C         -0.2453069452        1.2942458233        0.1005314027
 C          1.2209648246        1.2396934049       -0.3661535173
 C          1.9529160508       -0.0090271677        0.1886175511
 C          0.9937042247       -1.1993617948        0.4429688021
 C         -0.1936647334       -1.2006822873       -0.5383355632
 H         -2.8432884109        0.6785673380        0.5396721595
 H         -1.9707782189       -0.4358164672        1.4103798497
 H         -2.8509677118       -0.9189937463        0.0861421701
 H         -1.4457415180        0.3356742096       -1.4171426375
 H         -0.2771214735        1.2958019179        1.1942318562
 H         -0.7193885445        2.2343467999       -0.2051372914
 H          1.7513930588        2.1581419368       -0.0826318259
 H          1.2428539531        1.2204116682       -1.4614357695
 H          2.4734510331        0.2522432837        1.1175288083
 H          2.7440206274       -0.3152250141       -0.5061140887
 H          0.6096483922       -1.1476071464        1.4681440682
 H          1.5384422409       -2.1503546218        0.3875965582
 H         -0.8225867064       -2.0835135772       -0.3787310654
 H          0.1883356855       -1.2942857221       -1.5606565047
