  28
        -39.36975727
 N         -3.5250140785       -1.1719386078        1.1736519278
 C         -3.5350754805        0.0732014776        0.3633285263
 C         -2.7762867147       -0.1363834583       -0.9375132879
 O         -1.4609247486       -0.6281947954       -0.7051446204
 C         -0.5191965310        0.2878913663       -0.3863267166
 C         -0.7243078081        1.6843266287       -0.2498696883
 C          0.3066063464        2.5275247641        0.0838069668
 C          1.5852260436        2.0476839922        0.2979712988
 C          1.8684680519        0.6758628810        0.1733908752
 C          3.1618971594        0.1563337866        0.3732337454
 C          3.4053508260       -1.1859412267        0.2308811008
 C          2.3779117565       -2.0531665194       -0.1139248113
 C          1.1029047864       -1.5728765028       -0.3126829403
 C          0.8216139855       -0.2155157162       -0.1725037193
 H         -2.5540810355       -1.4815961831        1.3265089454
 H         -4.0144383413       -1.9350180467        0.6827857991
 H         -3.9750468200       -1.0455521753        2.0943813312
 H         -3.0693142162        0.8775203800        0.9427729673
 H         -4.5677372663        0.3893224444        0.1706226888
 H         -2.7255794338        0.7598075344       -1.5667153963
 H         -3.2729172136       -0.9067337028       -1.5403124055
 H         -1.7023963347        2.0989205243       -0.4142344799
 H          0.1180863529        3.5861728254        0.1776862185
 H          2.3808373398        2.7268434919        0.5569954520
 H          3.9630781106        0.8273474387        0.6367675543
 H          4.4020783038       -1.5712303900        0.3841605263
 H          2.5807023764       -3.1067062552       -0.2297791439
 H          0.3011580031       -2.2377939128       -0.5898745233
