  21
        -25.72568323
 N         -2.3082589071        0.2222976731       -1.1844561591
 C         -1.6626028181       -0.4189698492        0.0120018986
 C         -2.3148327661        0.0422960406        1.3100861404
 C         -0.1686637008       -0.1934456310        0.0113582478
 C          0.7148176278       -1.2770398215       -0.0458920930
 C          2.0911099489       -1.0744300473       -0.0524988450
 C          2.6054747297        0.2154053064       -0.0022207854
 C          1.7405363008        1.3016478727        0.0538994601
 C          0.3642917776        1.0979572174        0.0598530816
 H         -1.8694499959       -0.0980308723       -2.0595401394
 H         -2.2181253492        1.2469772142       -1.1478231534
 H         -3.3131190884        0.0007668309       -1.2357029366
 H         -1.8273628981       -1.5056088428       -0.0837055099
 H         -2.1990134721        1.1170439114        1.4416059783
 H         -1.8676691199       -0.4456260194        2.1765240494
 H         -3.3834616544       -0.1737019538        1.3173555637
 H          0.3235674644       -2.2793146698       -0.0864033418
 H          2.7601243769       -1.9188961899       -0.0971321462
 H          3.6724665623        0.3729465788       -0.0072150250
 H          2.1375988618        2.3033452734        0.0926950568
 H         -0.2992491138        1.9443040095        0.1025416863
  21
        -25.72126614
 N         -2.2696730715       -0.9778956386       -0.8874677603
 C         -1.6620466011       -0.2842108795        0.3040490237
 C         -2.4250146870        1.0093930474        0.5806024264
 C         -0.1663858698       -0.0821657944        0.1447882467
 C          0.6079936348       -1.0188424339       -0.5489717620
 C          1.9861790509       -0.8706830354       -0.6709575139
 C          2.6232533934        0.2179074006       -0.0903893865
 C          1.8769953310        1.1516680390        0.6165210827
 C          0.4992329615        0.9995423611        0.7368296742
 H         -3.2930942189       -1.0476339519       -0.7945790250
 H         -1.9152768430       -1.9370690895       -1.0101471391
 H         -2.0728707396       -0.4504873601       -1.7493682908
 H         -1.7992373356       -0.9546726660        1.1695842351
 H         -3.5004860957        0.8337670553        0.6059682617
 H         -2.2339706958        1.7421604398       -0.2024324367
 H         -2.1504207764        1.4543159743        1.5368722729
 H          0.1355213683       -1.8777564387       -0.9900695744
 H          2.5620483103       -1.6041507517       -1.2123656777
 H          3.6916702160        0.3339559575       -0.1822351709
 H          2.3686688389        1.9935260488        1.0773640297
 H         -0.0558708417        1.7258095264        1.3039792008
