  21
  -25.725683230000001        5.5735565977071737E-002 !mtd5
 N         -2.3082589071        0.2222976731       -1.1844561591
 C         -1.6626028181       -0.4189698492        0.0120018986
 C         -2.3148327661        0.0422960406        1.3100861404
 C         -0.1686637008       -0.1934456310        0.0113582478
 C          0.7148176278       -1.2770398215       -0.0458920930
 C          2.0911099489       -1.0744300473       -0.0524988450
 C          2.6054747297        0.2154053064       -0.0022207854
 C          1.7405363008        1.3016478727        0.0538994601
 C          0.3642917776        1.0979572174        0.0598530816
 H         -1.8694499959       -0.0980308723       -2.0595401394
 H         -2.2181253492        1.2469772142       -1.1478231534
 H         -3.3131190884        0.0007668309       -1.2357029366
 H         -1.8273628981       -1.5056088428       -0.0837055099
 H         -2.1990134721        1.1170439114        1.4416059783
 H         -1.8676691199       -0.4456260194        2.1765240494
 H         -3.3834616544       -0.1737019538        1.3173555637
 H          0.3235674644       -2.2793146698       -0.0864033418
 H          2.7601243769       -1.9188961899       -0.0971321462
 H          3.6724665623        0.3729465788       -0.0072150250
 H          2.1375988618        2.3033452734        0.0926950568
 H         -0.2992491138        1.9443040095        0.1025416863
  21
  -25.725683220000001        5.5734976189259454E-002 !mtd4
 N         -2.3083521902        0.2223298404       -1.1844226005
 C         -1.6626086519       -0.4189703872        0.0119700058
 C         -2.3147364419        0.0422686671        1.3101160751
 C         -0.1686695820       -0.1934499362        0.0112539112
 C          0.7148227940       -1.2770408774       -0.0459129518
 C          2.0911138180       -1.0744329702       -0.0524364073
 C          2.6054775898        0.2154024577       -0.0021441406
 C          1.7405343712        1.3016461669        0.0539165206
 C          0.3642904757        1.0979505183        0.0597490885
 H         -1.8697833217       -0.0981618465       -2.0595675296
 H         -2.2180403231        1.2469970236       -1.1478814781
 H         -3.3132647145        0.0009863645       -1.2354494774
 H         -1.8273727176       -1.5056068192       -0.0837527029
 H         -1.8672368167       -0.4454269969        2.1765577798
 H         -3.3831747284       -0.1740152444        1.3176282072
 H         -2.1991797584        1.1171546374        1.4414848518
 H          0.3235097788       -2.2792895646       -0.0864578258
 H          2.7601229736       -1.9189032484       -0.0970641444
 H          3.6724706539        0.3729400505       -0.0070425450
 H          2.1376529053        2.3033171801        0.0928393369
 H         -0.2992125343        1.9443321526        0.1023330589
  21
  -25.725681779999999        5.5650111875130373E-002 !mtd2
 N         -2.3106665521        0.2332291901       -1.1810357631
 C         -1.6626132079       -0.4188274578        0.0083287738
 C         -2.3122642585        0.0306606583        1.3117693448
 C         -0.1686736533       -0.1934090536        0.0078548481
 C          0.7148398484       -1.2773952741       -0.0409412488
 C          2.0911653435       -1.0749642514       -0.0448688099
 C          2.6055370216        0.2150815044       -0.0002429139
 C          1.7405715889        1.3016900325        0.0478498887
 C          0.3642998630        1.0981443761        0.0515058049
 H         -3.3151898805        0.0106578338       -1.2331518247
 H         -1.8724471023       -0.0780074816       -2.0599834581
 H         -2.2223597871        1.2574695658       -1.1345804617
 H         -1.8275211097       -1.5045350865       -0.0972178044
 H         -1.8641629202       -0.4660072306        2.1727909300
 H         -3.3809757673       -0.1842642139        1.3187525439
 H         -2.1948289099        1.1040643710        1.4533245636
 H          0.3235058868       -2.2798209677       -0.0766732608
 H          2.7601809329       -1.9197577972       -0.0828052197
 H          3.6725570823        0.3724822905       -0.0031288698
 H          2.1376680856        2.3035297190        0.0824192787
 H         -0.2992113516        1.9447322113        0.0894544549
  21
  -25.725681670000000        5.5643634499472683E-002 !mtd3
 N         -2.3085378865        0.2236371096       -1.1840545782
 C         -1.6626129400       -0.4189496353        0.0115592219
 C         -2.3145535108        0.0408967448        1.3102876771
 C         -0.1686730378       -0.1934560474        0.0109440548
 C          0.7148313185       -1.2770888737       -0.0452540771
 C          2.0911227409       -1.0744838700       -0.0515890327
 C          2.6054964346        0.2153767568       -0.0020246351
 C          1.7405316239        1.3016473930        0.0531788380
 C          0.3642854848        1.0979665809        0.0588657070
 H         -3.3132616701        0.0018275091       -1.2355581510
 H         -1.8695251647       -0.0955343179       -2.0597578131
 H         -2.2188354925        1.2481123468       -1.1461208351
 H         -1.8274201085       -1.5054756767       -0.0853406335
 H         -3.3833157204       -0.1739905944        1.3170394309
 H         -2.1976432632        1.1152720402        1.4435582101
 H         -1.8679165923       -0.4488906775        2.1761071955
 H          0.3235167118       -2.2793629208       -0.0851475002
 H          2.7601529281       -1.9189740916       -0.0955341970
 H          3.6724897431        0.3729133323       -0.0067953447
 H          2.1376280245        2.3033486731        0.0915532363
 H         -0.2992253480        1.9443643676        0.1009964705
  21
  -25.725681580000000        5.5638335389164711E-002 !mtd3
 N         -2.3061987244        0.2103307835       -1.1878839854
 C         -1.6625954861       -0.4190859388        0.0158799959
 C         -2.3170014902        0.0549623314        1.3083156569
 C         -0.1686644625       -0.1934431665        0.0144869865
 C          0.7147574579       -1.2765764776       -0.0516368630
 C          2.0910133298       -1.0738163238       -0.0605055767
 C          2.6054134256        0.2157355211       -0.0037597582
 C          1.7405319080        1.3015664225        0.0605917465
 C          0.3643177350        1.0977468955        0.0684115873
 H         -2.2137435221        1.2348877318       -1.1621861978
 H         -3.3116690156       -0.0097159487       -1.2374391358
 H         -1.8673925552       -0.1203106432       -2.0591979036
 H         -1.8272179441       -1.5066408528       -0.0690077706
 H         -1.8696645273       -0.4226512714        2.1804363767
 H         -3.3850703106       -0.1631129434        1.3169377651
 H         -2.2037381048        1.1314021391        1.4283573984
 H          0.3234202653       -2.2785861131       -0.0975050478
 H          2.7599660249       -1.9179358704       -0.1120748309
 H          3.6723816772        0.3733827726       -0.0102635932
 H          2.1376594829        2.3030348260        0.1043412956
 H         -0.2991470040        1.9438725910        0.1165099612
  21
  -25.725681560000002        5.5637157877746909E-002 !mtd3
 N         -2.3089053538        0.2262653313       -1.1833082984
 C         -1.6626017141       -0.4189535761        0.0107082000
 C         -2.3141720571        0.0380884993        1.3106018551
 C         -0.1686703705       -0.1934129182        0.0103602839
 C          0.7148362154       -1.2771545370       -0.0438371733
 C          2.0911478577       -1.0746499459       -0.0499036503
 C          2.6054648029        0.2152811957       -0.0018454161
 C          1.7405483280        1.3016833356        0.0517275655
 C          0.3642951712        1.0980413466        0.0570971074
 H         -1.8691688654       -0.0897723329       -2.0594866983
 H         -2.2205122830        1.2509525066       -1.1427357311
 H         -3.3133796393        0.0032754636       -1.2357925784
 H         -1.8273326326       -1.5052722244       -0.0886022494
 H         -3.3824810934       -0.1790365666        1.3182815955
 H         -2.1990845919        1.1125247850        1.4449962639
 H         -1.8657497833       -0.4518954564        2.1753896384
 H          0.3234823105       -2.2794655353       -0.0824612432
 H          2.7599520159       -1.9193712167       -0.0928047192
 H          3.6724497555        0.3728793139       -0.0066651353
 H          2.1377967506        2.3033652976        0.0889971264
 H         -0.2992277368        1.9444813347        0.0981325451
  21
  -25.725681500000000        5.5633625492595873E-002 !mtd3
 N         -2.3086294653        0.2236719060       -1.1840030613
 C         -1.6626138271       -0.4189440231        0.0115430289
 C         -2.3144608978        0.0408364124        1.3103369899
 C         -0.1686717528       -0.1934489820        0.0108801750
 C          0.7148153307       -1.2770964073       -0.0453142102
 C          2.0911050775       -1.0744688720       -0.0515107088
 C          2.6055140418        0.2153752901       -0.0018795946
 C          1.7405569774        1.3016586440        0.0531726585
 C          0.3643124129        1.0979655738        0.0587119635
 H         -3.3134561110        0.0022433552       -1.2351530509
 H         -1.8701146216       -0.0957627176       -2.0598637530
 H         -2.2185217201        1.2481210085       -1.1463074966
 H         -1.8274092053       -1.5054661511       -0.0854203960
 H         -2.1977617601        1.1152899245        1.4434774562
 H         -1.8676785691       -0.4487828164        2.1760138137
 H         -3.3832497770       -0.1743692860        1.3172991558
 H          0.3235261877       -2.2793758667       -0.0853142183
 H          2.7601180373       -1.9189819762       -0.0952907498
 H          3.6725165257        0.3728507596       -0.0065276370
 H          2.1376393879        2.3033720535        0.0913653620
 H         -0.2992318986        1.9443624860        0.1003327944
  21
  -25.725681099999999        5.5610081989400359E-002 !mtd2
 N         -2.3059817922        0.2092749800       -1.1881903603
 C         -1.6625956091       -0.4190968607        0.0162280981
 C         -2.3172238363        0.0560811483        1.3081413686
 C         -0.1686655445       -0.1934428875        0.0147981272
 C          0.7147476609       -1.2765322698       -0.0521311235
 C          2.0910003344       -1.0737572450       -0.0612250504
 C          2.6054056506        0.2157686283       -0.0039289514
 C          1.7405325063        1.3015597906        0.0611687699
 C          0.3643217977        1.0977271608        0.0692018172
 H         -2.2130404777        1.2338158664       -1.1636086154
 H         -3.3115527531       -0.0103769110       -1.2374448717
 H         -1.8673631240       -0.1225025705       -2.0591676918
 H         -1.8272032430       -1.5067281010       -0.0677012518
 H         -3.3852269385       -0.1625092260        1.3170168976
 H         -2.2045027265        1.1325792951        1.4269853464
 H         -1.8696218575       -0.4204051044        2.1808540663
 H          0.3234028503       -2.2785176594       -0.0984653951
 H          2.7599472118       -1.9178436556       -0.1133948340
 H          3.6723707496        0.3734292399       -0.0106119150
 H          2.1376665746        2.3030093490        0.1053071852
 H         -0.2991337354        1.9438311785        0.1178047149
  21
  -25.725680879999999        5.5597137309795173E-002 !mtd1
 N         -2.3102438796        0.2335016598       -1.1810756899
 C         -1.6626586179       -0.4187831664        0.0082533268
 C         -2.3127139685        0.0304361314        1.3116051819
 C         -0.1686296297       -0.1935015459        0.0082701214
 C          0.7148758521       -1.2775095183       -0.0404309266
 C          2.0911876206       -1.0749428740       -0.0449564719
 C          2.6055066937        0.2151355965       -0.0008602876
 C          1.7405509508        1.3017271498        0.0476754856
 C          0.3643000432        1.0980654615        0.0518395619
 H         -2.2193446849        1.2575139055       -1.1357468246
 H         -3.3156477457        0.0133002142       -1.2318615646
 H         -1.8740362177       -0.0794356567       -2.0602116331
 H         -1.8277567486       -1.5044727802       -0.0974630627
 H         -2.1921952048        1.1031476782        1.4549509140
 H         -1.8671298040       -0.4686600597        2.1724978987
 H         -3.3821824800       -0.1814501390        1.3167757844
 H          0.3236636968       -2.2799988185       -0.0753730660
 H          2.7602296313       -1.9196785259       -0.0832613255
 H          3.6725082178        0.3726089555       -0.0044382079
 H          2.1377459212        2.3035035526        0.0826596949
 H         -0.2992269319        1.9445886208        0.0895551415
  21
  -25.725680369999999        5.5567140776813531E-002 !mtd1
 N         -2.2374626508       -0.4831228880        1.2416960443
 C         -1.6986726174        0.2306284282        0.0334387654
 C         -2.3290041698       -0.2956953923       -1.2506316724
 C         -0.1894035727        0.1732628750       -0.0055745209
 C          0.4826705947       -1.0501884790       -0.0739640066
 C          1.8728862746       -1.0989642209       -0.1046728967
 C          2.6123941496        0.0768362110       -0.0659925494
 C          1.9588581554        1.3012336173        0.0034831280
 C          0.5690184672        1.3489223647        0.0335672470
 H         -1.8146250618       -0.1189435321        2.1074438357
 H         -2.0346396074       -1.4911998567        1.1961174745
 H         -3.2591062144       -0.3754898429        1.3198366400
 H         -1.9809925073        1.2917195692        0.1405416849
 H         -2.0964621554       -1.3499735702       -1.3928201752
 H         -1.9627283831        0.2431660419       -2.1248216516
 H         -3.4149660853       -0.2014780993       -1.2287066705
 H         -0.0829854820       -1.9650687606       -0.1034714918
 H          2.3779655123       -2.0500253867       -0.1583537435
 H          3.6900615629        0.0394114464       -0.0894413645
 H          2.5305159886        2.2150178518        0.0344448911
 H          0.0694273713        2.3013958561        0.0887214879
  21
  -25.725679570000000        5.5520119993178074E-002 !mtd1
 N         -2.2385831572       -0.4301041939        1.2561512269
 C         -1.6989454636        0.2308251377        0.0186485073
 C         -2.3274573716       -0.3513189443       -1.2420786431
 C         -0.1895625997        0.1727948660       -0.0150267729
 C          0.4830169361       -1.0518592194       -0.0480050924
 C          1.8733362380       -1.1010624751       -0.0725530003
 C          2.6125055525        0.0755450558       -0.0621382156
 C          1.9584916561        1.3011467581       -0.0268862264
 C          0.5685422631        1.3492498956       -0.0033261474
 H         -1.8185396847       -0.0268984283        2.1058139201
 H         -2.0326245655       -1.4385823131        1.2555313885
 H         -3.2606713940       -0.3218852305        1.3273466346
 H         -1.9821045145        1.2953852580        0.0787746439
 H         -1.9576466606        0.1467922139       -2.1387081800
 H         -3.4131044169       -0.2535765529       -1.2272302769
 H         -2.0974904995       -1.4116162997       -1.3361384948
 H         -0.0823465608       -1.9673831041       -0.0544551088
 H          2.3788539007       -2.0530228787       -0.0995289832
 H          3.6902552197        0.0377789192       -0.0807321591
 H          2.5298416012        2.2155967853       -0.0171985398
 H          0.0685530480        2.3026710705        0.0256150657
  21
  -25.725679190000001        5.5497799061551514E-002 !mtd2
 N         -2.2373616924       -0.4814641437        1.2422634001
 C         -1.6987011056        0.2306546961        0.0329860044
 C         -2.3291165147       -0.2974715513       -1.2503070211
 C         -0.1894326576        0.1732585195       -0.0060117241
 C          0.4826914189       -1.0502295399       -0.0732218636
 C          1.8729102409       -1.0990485542       -0.1036437427
 C          2.6124153597        0.0767885529       -0.0658362573
 C          1.9588375457        1.3012254378        0.0025062701
 C          0.5689946185        1.3489455939        0.0322928961
 H         -3.2589268817       -0.3736499784        1.3203768989
 H         -1.8142925667       -0.1160735857        2.1076911887
 H         -2.0345376154       -1.4894024440        1.1979988496
 H         -1.9810136825        1.2918928914        0.1386305676
 H         -1.9616398297        0.2391228641       -2.1254367227
 H         -3.4148353353       -0.2017334266       -1.2291590611
 H         -2.0979172648       -1.3524456971       -1.3902039844
 H         -0.0829620133       -1.9651354940       -0.1020082941
 H          2.3780844309       -2.0501102362       -0.1564111333
 H          3.6900873725        0.0393206685       -0.0889816625
 H          2.5304469779        2.2150570419        0.0329848108
 H          0.0693365081        2.3014256849        0.0867182476
  21
  -25.725678530000000        5.5459052453641890E-002 !mtd4
 N         -2.2381123361       -0.4544649096        1.2497849755
 C         -1.6988318015        0.2308129561        0.0254081044
 C         -2.3281355084       -0.3258945108       -1.2463311369
 C         -0.1894987769        0.1730629242       -0.0106720287
 C          0.4828650533       -1.0511600719       -0.0598502249
 C          1.8731365338       -1.1002152805       -0.0872761317
 C          2.6124658670        0.0761074794       -0.0639620844
 C          1.9586607526        1.3012679654       -0.0129754204
 C          0.5687607833        1.3492265632        0.0136245060
 H         -3.2598965587       -0.3461691401        1.3243056920
 H         -1.8164569882       -0.0691853187        2.1072397644
 H         -2.0338824906       -1.4628662319        1.2284069446
 H         -1.9816278683        1.2940354947        0.1070635281
 H         -3.4139366621       -0.2300714285       -1.2280644788
 H         -2.0966636818       -1.3835259101       -1.3626638535
 H         -1.9601884517        0.1913244774       -2.1329640687
 H         -0.0826380269       -1.9664590951       -0.0768117828
 H          2.3784881929       -2.0518364045       -0.1265414863
 H          3.6901776521        0.0384599247       -0.0848534003
 H          2.5301365534        2.2154823517        0.0065261608
 H          0.0689306034        2.3022847008        0.0547198770
  21
  -25.725678410000000        5.5452010522811838E-002 !mtd1
 N         -2.2367857967       -0.5244766277        1.2285037395
 C         -1.6984420293        0.2300228452        0.0450051081
 C         -2.3298909326       -0.2517710127       -1.2558518407
 C         -0.1892694337        0.1734434209        0.0021174804
 C          0.4823474102       -1.0483628201       -0.0940883227
 C          1.8724449081       -1.0967390877       -0.1299308755
 C          2.6122669436        0.0779464960       -0.0692230254
 C          1.9591535246        1.3007234373        0.0274345178
 C          0.5694324258        1.3480038371        0.0629374201
 H         -2.0371042283       -1.5306708006        1.1472509941
 H         -3.2581667923       -0.4167756942        1.3124028378
 H         -1.8112654202       -0.1919887968        2.1056939673
 H         -1.9801204431        1.2869250700        0.1888888819
 H         -2.0974000497       -1.3005138774       -1.4344326966
 H         -1.9642743466        0.3168767048       -2.1112259062
 H         -3.4158282601       -0.1584841906       -1.2298335517
 H         -0.0836515199       -1.9622574090       -0.1417056715
 H          2.3772302581       -2.0465147979       -0.2048701768
 H          3.6898496596        0.0409541744       -0.0967826790
 H          2.5310663409        2.2136214276        0.0751987202
 H          0.0701185635        2.2991957378        0.1388335973
  21
  -25.725678349999999        5.5448489892606458E-002 !mtd1
 N         -2.2381375258       -0.4526761764        1.2502711981
 C         -1.6988378992        0.2308194372        0.0249089222
 C         -2.3280858601       -0.3277736559       -1.2460331332
 C         -0.1895015784        0.1730477738       -0.0110016701
 C          0.4828759586       -1.0512151154       -0.0589759965
 C          1.8731511457       -1.1002839031       -0.0861877196
 C          2.6124701998        0.0760640205       -0.0638346836
 C          1.9586517303        1.3012649459       -0.0140026893
 C          0.5687484118        1.3492368752        0.0123810941
 H         -2.0338239084       -1.4610303264        1.2303981338
 H         -3.2601868601       -0.3443331669        1.3246095099
 H         -1.8166293888       -0.0661614631        2.1070083202
 H         -1.9816628639        1.2941545299        0.1049790161
 H         -3.4138707805       -0.2317017303       -1.2280652613
 H         -2.0968195377       -1.3856352166       -1.3606645064
 H         -1.9599109893        0.1879670345       -2.1334319631
 H         -0.0826185705       -1.9665348570       -0.0751250569
 H          2.3785155291       -2.0519356301       -0.1245288063
 H          3.6901848551        0.0384021397       -0.0845517367
 H          2.5301184467        2.2154998989        0.0048072905
 H          0.0689100293        2.3023258494        0.0526493216
  21
  -25.725674880000000        5.5245259932981169E-002 !mtd1
 N         -2.2373569579       -0.5030256544        1.2354648625
 C         -1.6986178014        0.2303528250        0.0389644951
 C         -2.3293569430       -0.2746115680       -1.2534384700
 C         -0.1894097320        0.1733927069       -0.0017634436
 C          0.4825503649       -1.0492956054       -0.0835334600
 C          1.8727171078       -1.0979334104       -0.1168165864
 C          2.6124366668        0.0773562067       -0.0676507251
 C          1.9590496455        1.3010167251        0.0150298024
 C          0.5692638312        1.3484841598        0.0477747222
 H         -3.2585889540       -0.3945868497        1.3167893757
 H         -1.8125020874       -0.1544738379        2.1069286556
 H         -2.0368565238       -1.5104221674        1.1725086552
 H         -1.9805796898        1.2896157591        0.1637485830
 H         -2.0966032279       -1.3263318696       -1.4132265719
 H         -1.9632686252        0.2786105833       -2.1186944282
 H         -3.4153274752       -0.1808985345       -1.2296749648
 H         -0.0832411796       -1.9637824257       -0.1214822697
 H          2.3776945061       -2.0483942290       -0.1808663000
 H          3.6900540718        0.0400731469       -0.0932225417
 H          2.5307406522        2.2144651119        0.0542012236
 H          0.0698348788        2.3004140065        0.1128626577
  21
  -25.725674320000000        5.5212531891587244E-002 !mtd4
 N         -2.2367758328       -0.5380519548        1.2238120344
 C         -1.6983715761        0.2297135093        0.0488771557
 C         -2.3303814502       -0.2368516361       -1.2572217934
 C         -0.1892304750        0.1731947590        0.0046128470
 C          0.4824038445       -1.0478484835       -0.1008265243
 C          1.8724945588       -1.0957995584       -0.1384008057
 C          2.6123510765        0.0784510641       -0.0702337908
 C          1.9592533692        1.3004797070        0.0355133023
 C          0.5695647284        1.3473111827        0.0726303944
 H         -1.8106518946       -0.2162446790        2.1046041659
 H         -2.0380505315       -1.5436678694        1.1307229125
 H         -3.2578242414       -0.4303888999        1.3093473296
 H         -1.9795907145        1.2850073602        0.2050137996
 H         -3.4163277587       -0.1454785758       -1.2289030367
 H         -2.0962006958       -1.2828386359       -1.4489965986
 H         -1.9666506792        0.3430698085       -2.1059822246
 H         -0.0835063963       -1.9614680925       -0.1543598016
 H          2.3773142108       -2.0449727157       -0.2204338900
 H          3.6899055599        0.0416124367       -0.0991329221
 H          2.5310778920        2.2131195418        0.0889790151
 H          0.0703288628        2.2979509171        0.1557005304
  21
  -25.725674049999999        5.5196759228422203E-002 !mtd1
 N         -2.2370009124       -0.5433499464        1.2217744846
 C         -1.6983384529        0.2295724412        0.0503526834
 C         -2.3301521488       -0.2310319460       -1.2579171588
 C         -0.1891803001        0.1731247662        0.0058807458
 C          0.4824068816       -1.0475958049       -0.1033585688
 C          1.8724678791       -1.0954680058       -0.1416558238
 C          2.6123196750        0.0786414880       -0.0707492863
 C          1.9592519071        1.3003359940        0.0386864877
 C          0.5695678195        1.3470805539        0.0766564643
 H         -2.0378564340       -1.5482343066        1.1245982707
 H         -3.2583211889       -0.4365978890        1.3073584707
 H         -1.8114592899       -0.2249913616        2.1041502231
 H         -1.9793744834        1.2842044377        0.2111737423
 H         -1.9642417019        0.3509665770       -2.1042158164
 H         -3.4159088404       -0.1374790412       -1.2303316241
 H         -2.0979702008       -1.2769784321       -1.4531206521
 H         -0.0834983556       -1.9610787173       -0.1592140986
 H          2.3772630254       -2.0444002725       -0.2265689866
 H          3.6898646608        0.0420038836       -0.1004415982
 H          2.5311002674        2.2128332756        0.0943565343
 H          0.0702654029        2.2974704691        0.1620382027
  21
  -25.721266140000001        5.2020964676875226E-004 !mtd4
 N         -2.2696730715       -0.9778956386       -0.8874677603
 C         -1.6620466011       -0.2842108795        0.3040490237
 C         -2.4250146870        1.0093930474        0.5806024264
 C         -0.1663858698       -0.0821657944        0.1447882467
 C          0.6079936348       -1.0188424339       -0.5489717620
 C          1.9861790509       -0.8706830354       -0.6709575139
 C          2.6232533934        0.2179074006       -0.0903893865
 C          1.8769953310        1.1516680390        0.6165210827
 C          0.4992329615        0.9995423611        0.7368296742
 H         -3.2930942189       -1.0476339519       -0.7945790250
 H         -1.9152768430       -1.9370690895       -1.0101471391
 H         -2.0728707396       -0.4504873601       -1.7493682908
 H         -1.7992373356       -0.9546726660        1.1695842351
 H         -3.5004860957        0.8337670553        0.6059682617
 H         -2.2339706958        1.7421604398       -0.2024324367
 H         -2.1504207764        1.4543159743        1.5368722729
 H          0.1355213683       -1.8777564387       -0.9900695744
 H          2.5620483103       -1.6041507517       -1.2123656777
 H          3.6916702160        0.3339559575       -0.1822351709
 H          2.3686688389        1.9935260488        1.0773640297
 H         -0.0558708417        1.7258095264        1.3039792008
