40
 energy: -55.286209859445 gnorm: 0.000206279527 xtb: 6.5.1 (fef0646)
N           13.22190488390607        5.64291916397594        0.41764492008669
C           14.18005915249583        4.54043703317420        0.67797283810143
C           13.51540594961752        3.18307576921854        0.48198757485041
C           13.20057092266475        2.87663020086862       -0.98222445700064
C           12.45793733444427        1.54311956965223       -1.12639948195124
N           11.15623427057097        1.60918333048760       -0.48991201357458
C           10.77752896778534        0.58217407999457        0.48093346741938
C            9.19407956949673        0.79970618255111        0.62543085584079
C            9.26148249021029        1.59294076420052        1.87358042938429
C            9.65829917801286        0.89137779630109        2.98371110801168
C           11.11037668290806        0.86313672395743        3.01393083948701
C           11.58923568283721        0.68865402520817        1.76666975002094
C           10.04647084678189        1.99665418999047       -1.21423640189047
C            8.85865990200818        1.55919911295146       -0.61294368905220
C            7.63342447903519        1.87436273526746       -1.14953332377374
C            7.58436294193663        2.63767313796846       -2.31255353864059
C            8.75523930751261        3.06784340494420       -2.91039192613562
C            9.99723781837372        2.75876216500837       -2.37301664417884
Cl           9.62867253969624       -2.95312460577245        0.48867450394557
H           13.66427270546919        6.55634590217091        0.56795302972645
H           12.41241304536050        5.55452307449481        1.04280165614285
H           12.88295068304321        5.59163251952228       -0.54946699613323
H           14.53711288458538        4.62114764390272        1.70388471501327
H           15.02834805083447        4.63732538424865        0.00072472851827
H           12.59395674910940        3.11876448019789        1.06260333597585
H           14.18567806455707        2.41289515121757        0.86283524345737
H           14.12159865100940        2.81829818418511       -1.56317397851159
H           12.56068738264818        3.64578175186756       -1.41263920338318
H           13.02995930960154        0.73718579482187       -0.66212484441884
H           12.34241516037527        1.29124079907063       -2.18885448348902
H           10.95582838087253       -0.42773275092263        0.06411348627421
H            8.68864155531388       -0.16168813833474        0.73238428193919
H            9.76275752860166        2.54439911113184        1.71340258944214
H            9.15057737200273       -0.02575130776321        3.26604834581684
H           11.73053420113795        0.76952089398060        3.89350920171142
H           12.64061172723343        0.46985478374266        1.63293999796033
H            6.72653368479819        1.51918001106321       -0.68051497468031
H            6.62874926208796        2.88338125102481       -2.75081764359293
H            8.70372402890100        3.65073482805003       -3.81813629392630
H           10.89297665218540        3.08301585311430       -2.87705700456161
