49
 energy: -78.751543761853 gnorm: 0.000262806409 xtb: 6.5.1 (fef0646)
N            3.47906882241961       -1.11689926045710       -0.80256295882423
C            2.74781839351175       -0.29147744250110        0.18274789697312
C            3.52398513809593       -0.20959670547410        1.49994847702107
C            4.75750057132382        0.62093409528637        1.38264709315005
C            5.00449897040956        1.85181243914033        1.91110409660871
C            6.27370966671166        2.36251788573086        1.57994392150545
C            7.01557653686535        1.52363468470795        0.78926966251386
C            8.31718640548229        1.71823653674549        0.24721450743508
C            9.06534125830556        0.84726226902624       -0.50543040940351
C           10.31256828151739        1.36038574252054       -0.90016143504775
C           11.28324586385595        0.53574774928622       -1.67936550966982
C           10.51820690841267        2.64975447149616       -0.44373268749889
C           11.62081514969085        3.55076462350082       -0.64823167585810
C           12.49332564458665        3.48887502086141       -1.72265180824836
C           13.54244577297218        4.39290333222872       -1.90549571712848
C           13.79853045854238        5.44336952764978       -1.04084098796889
C           14.86799253382622        6.39343924242504       -1.22562856388330
C           15.46321122285396        6.83948973907096       -2.38564457672238
C           15.07154590371268        6.46968918859276       -3.77868406105999
C           16.49672361994827        7.77026798773635       -2.12552635741466
C           16.67948902900200        8.02130043603676       -0.80457756678328
S           15.57637683724309        7.14894826079309        0.17903142056060
C           12.93508937847572        5.53898976745819        0.08044111562463
N           12.97695367344889        6.45382657709679        1.05041952149117
S           11.78912682020436        6.17172578932455        2.09462775261186
N           11.15422359372120        4.87976539995298        1.37052834944214
C           11.85380780299923        4.61174207381758        0.26695320554387
S            9.17330797028216        3.21154907224135        0.51317496354210
S            6.13649021966514        0.07010919277276        0.46406272064438
H            2.98609347810491       -1.14063370129301       -1.70112922921330
H            3.58817055813717       -2.07564724994064       -0.45372797809086
H            4.42382687857470       -0.72958198734295       -0.94475399839711
H            1.77161678522998       -0.73590859482231        0.37137578769612
H            2.60763096935880        0.71109418162937       -0.21983079323429
H            3.78938620204220       -1.21296806648571        1.83422643862008
H            2.88456671912534        0.23997803172333        2.25842092553808
H            4.30330751585700        2.38758155110654        2.52496119870077
H            6.65102819402942        3.31649516903974        1.90435889244234
H            8.73369405348691       -0.14247816947718       -0.76758733543835
H           11.07591184611537       -0.51896992526290       -1.51769234101541
H           12.30577451499900        0.74427964248597       -1.37321683672181
H           11.19115052523824        0.73726017221141       -2.74631378690680
H           12.35323728426833        2.73026644913889       -2.47270153629141
H           14.18968741676806        4.24597294487941       -2.75298513263187
H           14.00356373413743        6.27681735883502       -3.84516199913295
H           15.60965518073263        5.58035819972461       -4.10607841175140
H           15.32803444621134        7.28205521688497       -4.45409067180231
H           17.07703107567593        8.23204790123893       -2.90398068453827
H           17.38977017381031        8.67585317864931       -0.34132289699200
