  22
        -30.66471946
 N         -1.1343215501        1.5421920234        1.1126861559
 C         -0.0535196271        1.7500402337        0.0967682409
 C         -0.6479511010        2.0274724923       -1.2779189857
 C          0.8984695886        0.5784550508        0.0624677135
 C          0.4248575671       -0.7203959928       -0.0553557286
 C          1.2987470441       -1.7891278923       -0.1040190568
 C          2.6602554389       -1.5721557546       -0.0393249721
 C          3.1462256214       -0.2846926068        0.0727467659
 C          2.2710806996        0.7833216733        0.1218266021
 Cl        -3.0636566026       -1.1254969220       -0.0459278876
 H         -1.7317358753        2.3787110206        1.2098123977
 H         -0.7389686377        1.3164460374        2.0386522540
 H         -1.7428508667        0.7571764612        0.8302521518
 H          0.5243226864        2.6327311219        0.4119113740
 H         -1.2255742854        1.1698244812       -1.6249829305
 H          0.1313172143        2.2203588982       -2.0176524254
 H         -1.3182445382        2.8886527259       -1.2568948745
 H         -0.6380018982       -0.8926134649       -0.1100641801
 H          0.9162535618       -2.7939518208       -0.1937286640
 H          3.3432826680       -2.4065393545       -0.0783000508
 H          4.2101648924       -0.1122045102        0.1201695157
 H          2.6513790510        1.7884396860        0.2037991129
  22
        -30.66463828
 N         -1.1360841010        1.5377510728        1.1170242360
 C         -0.0534728752        1.7506479760        0.1041697764
 C         -0.6453593905        2.0351432820       -1.2701614001
 C          0.8979327741        0.5786740874        0.0664666818
 C          2.2700409319        0.7812089876        0.1442374570
 C          3.1445204935       -0.2872566368        0.0946708901
 C          2.6588232358       -1.5726374314       -0.0363301571
 C          1.2975880000       -1.7874961668       -0.1191532576
 C          0.4242698601       -0.7182867556       -0.0695489427
 Cl        -3.0616192980       -1.1263866986       -0.0622376253
 H         -1.7428921406        0.7532276203        0.8303748985
 H         -1.7343657303        2.3729817770        1.2162809012
 H         -0.7420555808        1.3085975790        2.0433463663
 H          0.5241074789        2.6315673288        0.4246862632
 H         -1.2254245706        1.1807705769       -1.6211871889
 H          0.1354246476        2.2280945972       -2.0082731664
 H         -1.3126097521        2.8986352419       -1.2467452275
 H          2.6506167640        1.7854170559        0.2418520468
 H          4.2079738008       -0.1164515674        0.1572279428
 H          3.3413936622       -2.4074055570       -0.0751197684
 H          0.9151992403       -2.7909784687       -0.2229371345
 H         -0.6376436193       -0.8887843973       -0.1359572409
