36
 energy: -50.871351055870 gnorm: 0.000884760699 xtb: 6.5.1 (fef0646)
N            1.01561207110100       -0.21078976163062        1.39709904931584
C            2.47559259597101       -0.20139779283647        1.46975386109242
C            3.02552757655187        1.04957064933563        0.77784494676814
C            4.52551526742404        1.00601976025112        0.73778412183710
C            5.18464693876968        0.35407342903099       -0.29824295975915
C            6.56167374939555        0.28152262742845       -0.33111181120142
C            7.33593116969378        0.85860197884519        0.67911342758861
C            8.78592341858834        0.82463959742208        0.69750983764537
C            9.58407675459342        0.39173662997492       -0.28890634575072
C           11.03506137783659        0.37096889499296       -0.27883088794818
C           11.80252920702462        0.68163677140855        0.84685846911143
C           13.18186388295544        0.64890997902671        0.79384221062872
C           13.83205082914281        0.30604921898897       -0.38085576189515
C           13.08758651865082       -0.00903251687888       -1.50563881482278
C           11.70826469605228        0.02082326663157       -1.45353276065281
C            6.66465999828952        1.50218542987878        1.72300022043218
C            5.28717003519962        1.57577319398637        1.75038806762579
Cl           0.20933640711654       -0.18912566122855       -1.42410600373919
H            0.62993560412220       -1.04087775248292        1.83320811126721
H            0.58677355367863       -0.19887351949638       -0.10325892322936
H            0.62569514857885        0.60922824234738        1.85067724771519
H            2.83825484667031       -1.09159268209641        0.95033744473874
H            2.84265080921998       -0.23784209674390        2.50570564368262
H            2.69002857977030        1.93698183345484        1.31899635119730
H            2.62145070383184        1.08734948826300       -0.23395458285933
H            4.60483545037064       -0.09546349490162       -1.09203084443431
H            7.04006370559802       -0.23465242843870       -1.14943820914235
H            9.22747916699983        1.21511706485531        1.60519775835354
H            9.14139382975807        0.03248351064049       -1.20887939071890
H           11.31796402116216        0.94457922982667        1.77464187402877
H           13.75735093698466        0.89158624530181        1.67572974096514
H           14.91108378302020        0.28261729334090       -0.41805589658831
H           13.58574008089678       -0.27957137763606       -2.42552598389263
H           11.13443197705661       -0.22598442656941       -2.33605449749242
H            7.23843409437915        1.95638831766638        2.51921538029379
H            4.79493121354413        2.08704085804507        2.56641990984326
