  27
        -35.42530148
 N          3.5266452574        0.1122856863        1.2050492962
 C          2.8046476365        0.5709129832       -0.0279735577
 C          3.5384682897        0.1469215277       -1.2949296665
 C          1.3694341042        0.1009276882       -0.0230676765
 C          1.0672114044       -1.2599361746       -0.0239071950
 C         -0.2387976067       -1.7041010391       -0.0156955300
 C          0.3308671586        1.0201837425       -0.0137794470
 C         -1.0134877940        0.6070807911       -0.0053857216
 C         -1.3068388344       -0.7908197943       -0.0060021067
 C         -2.6512432726       -1.2043202845        0.0039618528
 C         -3.6711154208       -0.2757201533        0.0136508999
 C         -3.3868378826        1.0824094277        0.0136888569
 C         -2.0800318026        1.5242349730        0.0042516714
 H          3.6031888855       -0.9103286515        1.2170936270
 H          3.0216429867        0.4004170352        2.0501896716
 H          4.4758315089        0.4998174561        1.2454054501
 H          2.7872849471        1.6728103971        0.0031429036
 H          3.6057517868       -0.9378747542       -1.3577488831
 H          4.5545553193        0.5397530287       -1.3169855283
 H          3.0208543819        0.4969422509       -2.1881345660
 H          1.8701312028       -1.9757963794       -0.0327831689
 H         -0.4508393946       -2.7591942770       -0.0164376567
 H          0.5521763114        2.0721903975       -0.0123940056
 H         -2.8773135979       -2.2566143783        0.0042194628
 H         -4.6966843856       -0.6070614265        0.0212439399
 H         -4.1934202022        1.7971768796        0.0209912247
 H         -1.8654396598        2.5789027263        0.0036446217
