30
 energy: -34.851915828088 gnorm: 0.000345518641 xtb: 6.5.1 (fef0646)
N            0.79917406791844        1.82455537133517       -1.41696728568678
C            2.25193621807018        2.08312557929352       -1.48662726843018
C            2.92615410604918        1.59851308313024       -0.20816091050784
C            4.45138821473956        1.60692696960823       -0.31054993960102
C            5.03742015289353        3.00886054772254       -0.47488742226610
C            6.56435892660194        2.99209762425132       -0.44330994930908
C            7.15352334157308        4.38482236328885       -0.65692405769192
C            8.67990919964831        4.37934673427096       -0.62154617188502
C            9.25711461631553        5.76948187045442       -0.86272854381020
Cl           0.26330827113367       -1.15994969015435       -1.00131569354854
H            0.32242974816975        2.11652683263805       -2.27281161855303
H            0.38685892302606        2.30145315474455       -0.61167448765752
H            0.62225353106141        0.79576469757283       -1.28724731783276
H            2.41831624593376        3.15072268351483       -1.62854886130209
H            2.66148491864569        1.53700107568273       -2.33588214335004
H            2.59102790159858        0.57718062704873       -0.01579723068981
H            2.62236580407456        2.21942575685097        0.63565629703788
H            4.76154504868473        0.98270433305982       -1.15077106886444
H            4.86309422075211        1.15731110394657        0.59531407540115
H            4.67220626010221        3.65126754613750        0.32876554969923
H            4.71677022065229        3.43658128324362       -1.42511695877729
H            6.93485546303797        2.32131472480349       -1.22225915516118
H            6.90647109368914        2.59808160882346        0.51677778850023
H            6.78014833978091        5.05838842604623        0.11790119931630
H            6.82090396240051        4.77310198090404       -1.62229737119291
H            9.05605687545728        3.69341668810221       -1.38417192670727
H            9.01765153557585        4.00917173754316        0.34927719394811
H            8.95397779157170        6.14336902367872       -1.83811817595971
H           10.34355181873367        5.74508691842473       -0.82688256098997
H            8.90400318210803        6.46502934403241       -0.10469598412746
