24
 energy: -25.659713846935 gnorm: 0.000416675504 xtb: 6.5.1 (fef0646)
N            3.31658362056604       -0.58230021617236       -1.17193071737929
C            2.53204933305980       -0.05066709224371       -0.01385996596672
C            2.91867830670462       -0.76919344244036        1.27892831050880
C            2.55994733141853       -2.25729255874781        1.23114110878455
C            2.94728139080667       -2.93734626749809        2.54491068539532
C            2.24689745655568       -2.26992199844488        3.72319552280560
C            2.58330685101836       -0.78349884156177        3.77055613917041
C            2.19910574319648       -0.10449223208605        2.45833081138145
H            3.01775575760704       -0.16392409428573       -2.06041250941521
H            3.17979814202855       -1.60392888326169       -1.20800491675017
H            4.31802265340521       -0.39616096056378       -1.03204106647968
H            1.47140781264568       -0.20116483951678       -0.22089412836843
H            2.72259667467654        1.01982351527138        0.07288310061326
H            3.99802789187169       -0.66606533976537        1.43723208729974
H            3.07682553753049       -2.77084293121522        0.41233137973829
H            1.48433596717677       -2.36644542122656        1.07850521181188
H            4.02894723355881       -2.87482975959365        2.68037903382864
H            2.67721528138869       -3.99242553289622        2.50009926759105
H            2.55756914360259       -2.74800087323991        4.65131015439987
H            1.16743774778264       -2.39780074714658        3.62668246250965
H            3.65251273542061       -0.65488904132653        3.94904059871005
H            2.04907904161599       -0.30761532646540        4.59214905611798
H            2.45713400670280        0.95465101809287        2.50151519532486
H            1.12047433965984       -0.18403813366589        2.31373317836797
