  33
        -46.50799854
 N         -5.2607789892        0.3520377843       -1.6321451929
 C         -5.3777033364       -0.6991392731       -0.5801873238
 C         -4.7236600348       -0.2877437357        0.7371962730
 C         -3.2462057326       -0.0652202024        0.6113578579
 C         -2.3777054081       -1.1453349175        0.5074775305
 C         -1.0247008196       -0.9502581643        0.3673015294
 C         -2.7192393190        1.2202999854        0.5658879573
 C         -1.3673060855        1.4243410048        0.4252274953
 C         -0.4933472893        0.3395970858        0.3231441755
 N          0.8477911211        0.5390628974        0.1858145977
 N          1.6589636397       -0.4557313790        0.0953869314
 C          3.0000833057       -0.2548363356       -0.0396839050
 C          3.5272746785        1.0376266493       -0.0915250967
 C          4.8803099640        1.2357516264       -0.2285554403
 C          5.7342487308        0.1517549810       -0.3165473421
 C          5.2285026195       -1.1341705755       -0.2667870529
 C          3.8764085327       -1.3402973640       -0.1298422973
 H         -5.7001015761        0.0573100713       -2.5119957746
 H         -4.2746344716        0.5620388543       -1.8256457397
 H         -5.7127011236        1.2217746323       -1.3275083198
 H         -4.9180025066       -1.6243823394       -0.9452239803
 H         -6.4374403045       -0.9333560352       -0.4225089720
 H         -4.9032203756       -1.0451657054        1.5081737670
 H         -5.1959339895        0.6262099605        1.1101109452
 H         -2.7761757988       -2.1449486266        0.5406782196
 H         -0.3523833800       -1.7864156818        0.2897906903
 H         -3.3825005738        2.0642770466        0.6473825796
 H         -0.9629451999        2.4209283410        0.3927894992
 H          2.8517221696        1.8721142293       -0.0224336892
 H          5.2765510977        2.2374198265       -0.2676404195
 H          6.7950812622        0.3092807935       -0.4239658083
 H          5.8966501593       -1.9772270345       -0.3354689943
 H          3.4737674534       -2.3374776025       -0.0894775697
  33
        -46.50795418
 N         -5.0443551002       -1.2922241894        1.4718814015
 C         -5.4651478380       -0.0816678654        0.7083328804
 C         -4.7535086720        0.0414754903       -0.6374560346
 C         -3.2683083357        0.1951838251       -0.5002250131
 C         -2.4125743772       -0.8683001806       -0.7638896710
 C         -1.0537803722       -0.7326478761       -0.6106041131
 C         -2.7220538626        1.4002040799       -0.0747747059
 C         -1.3640938714        1.5444190790        0.0813913079
 C         -0.5035188589        0.4768480905       -0.1836127935
 N          0.8428283007        0.6153154494       -0.0252111951
 N          1.6404703601       -0.3684191549       -0.2526515098
 C          2.9874229188       -0.2280123614       -0.1020416754
 C          3.5388537290        0.9897681314        0.3028552703
 C          4.8983514155        1.1267519655        0.4500813430
 C          5.7343426438        0.0546285023        0.1977413751
 C          5.2042022386       -1.1578198078       -0.2034260154
 C          3.8454979123       -1.3024910272       -0.3532528071
 H         -5.2599383397       -2.1468407793        0.9459240766
 H         -5.5188940794       -1.3500582649        2.3804741111
 H         -4.0324055914       -1.2764517479        1.6444479287
 H         -5.2647320040        0.8103484878        1.3123184682
 H         -6.5520375616       -0.1071639376        0.5641358760
 H         -5.1466248118        0.8933078123       -1.2032533720
 H         -4.9706023468       -0.8401204507       -1.2481768353
 H         -2.8236918436       -1.8062384294       -1.0957055382
 H         -0.3912112996       -1.5547222099       -0.8163737106
 H         -3.3772552426        2.2290995024        0.1319734046
 H         -0.9443317216        2.4788384916        0.4110319870
 H          2.8770237752        1.8158330331        0.4955134662
 H          5.3136773995        2.0711563598        0.7623168984
 H          6.8002781222        0.1641563262        0.3137744467
 H          5.8585481911       -1.9916075241       -0.3994314527
 H          3.4226831764       -2.2415339517       -0.6659964079
  33
        -46.50716818
 N         -6.7487370155       -0.3331150444       -0.8676570447
 C         -5.2666399256       -0.1580172274       -0.9124009995
 C         -4.6237288567       -0.2085524434        0.4692344994
 C         -3.1374193944       -0.0109612210        0.4253865483
 C         -2.2800594606       -1.0974436800        0.2953723504
 C         -0.9201797822       -0.9150212261        0.2183881258
 C         -2.5934550166        1.2675004266        0.4628446936
 C         -1.2346093242        1.4586947879        0.3857171755
 C         -0.3713059980        0.3676174851        0.2623523702
 N          0.9760537848        0.5553464592        0.1815175136
 N          1.7786480740       -0.4441414903        0.0695741601
 C          3.1250600146       -0.2529287920       -0.0183803919
 C          3.6663805014        1.0346361095       -0.0022294656
 C          5.0247780183        1.2230487552       -0.0912642285
 C          5.8701150624        0.1340164198       -0.1979424648
 C          5.3503000980       -1.1471415169       -0.2158021206
 C          3.9927306552       -1.3435589988       -0.1273022075
 H         -6.9936465701       -1.2362079106       -0.4488565184
 H         -7.1595994400       -0.2961157941       -1.8065620058
 H         -7.1825152685        0.4039215744       -0.3021687841
 H         -5.0253386326        0.7960018609       -1.3945171825
 H         -4.8247407593       -0.9303374441       -1.5521099413
 H         -4.8507557502       -1.1648571890        0.9501323218
 H         -5.0720658340        0.5524714157        1.1151290735
 H         -2.6927254171       -2.0909639774        0.2532398853
 H         -0.2560092640       -1.7555742620        0.1207266378
 H         -3.2510053908        2.1153648306        0.5519895801
 H         -0.8166297160        2.4496989219        0.4173730798
 H          2.9973950618        1.8731531032        0.0805945660
 H          5.4318748926        2.2210175663       -0.0779408156
 H          6.9351974471        0.2838966835       -0.2673472688
 H          6.0117398543       -1.9941246690       -0.2992451857
 H          3.5788987006       -2.3368887735       -0.1404514809
  33
        -46.50708554
 N         -6.7478932014       -0.3800508645       -0.8590500437
 C         -5.2711812366       -0.1638374662       -0.9069012240
 C         -4.6230225082       -0.2021512814        0.4726903620
 C         -3.1373673857       -0.0010875687        0.4232663220
 C         -2.2799610906       -1.0869107831        0.2887941947
 C         -0.9203764618       -0.9040447302        0.2100236848
 C         -2.5937247767        1.2774970392        0.4625656168
 C         -1.2348929578        1.4690770265        0.3840289332
 C         -0.3714844960        0.3784399111        0.2571024520
 N          0.9761178706        0.5655005809        0.1778225420
 N          1.7771363388       -0.4349088274        0.0611224659
 C          3.1246282194       -0.2490998900       -0.0216535416
 C          3.6740295977        1.0344154477        0.0204088184
 C          5.0337533790        1.2157454105       -0.0630336202
 C          5.8722849283        0.1236351683       -0.1900793359
 C          5.3443989475       -1.1535965446       -0.2333851589
 C          3.9855028739       -1.3429177572       -0.1503861390
 H         -7.1628512660       -0.3466819931       -1.7963646168
 H         -7.1999676484        0.3395285313       -0.2855634248
 H         -6.9669208772       -1.2931035811       -0.4472015876
 H         -5.0569367321        0.7976190148       -1.3870698044
 H         -4.8106188713       -0.9223268858       -1.5499687203
 H         -4.8441046271       -1.1565207436        0.9600188322
 H         -5.0722648650        0.5608133902        1.1156757661
 H         -2.6924106015       -2.0804649078        0.2452995394
 H         -0.2565052512       -1.7443610482        0.1091229159
 H         -3.2513270203        2.1249592497        0.5548620044
 H         -0.8163953145        2.4598572091        0.4174069699
 H          3.0105891306        1.8754781709        0.1194589023
 H          5.4473211992        2.2105629136       -0.0293491932
 H          6.9383724677        0.2680979462       -0.2554014217
 H          6.0005502021       -2.0029882840       -0.3323796158
 H          3.5645417305       -2.3328696709       -0.1830241940
