  33
        -46.39408594
 N         -5.1074298361        1.3390395297       -1.2493704638
 C         -5.4858368061        0.0623729800       -0.5803452059
 C         -4.7367884168       -0.1543265638        0.7326605796
 C         -3.2529984279       -0.2756534898        0.5478596437
 C         -2.6906302482       -1.4745372949        0.1234120864
 C         -1.3325287693       -1.5907188438       -0.0661283053
 C         -2.4150208949        0.8124869099        0.7672065929
 C         -1.0559794495        0.7048059617        0.5785319820
 C         -0.4904000043       -0.4997687369        0.1598406612
 N          0.8575609393       -0.6128816144       -0.0226270213
 N          1.6316412031        0.3925189100        0.1615599301
 C          2.9836746329        0.2697540960        0.0183625503
 C          3.5582332611       -0.9610810662       -0.3067356045
 C          4.9219691782       -1.0809959073       -0.4453800598
 C          5.7368811784        0.0217418154       -0.2638301338
 C          5.1828902986        1.2477137492        0.0578521029
 C          3.8200697466        1.3751749983        0.1990851215
 H         -5.3178134630        2.1491280069       -0.6472469259
 H         -5.6151993200        1.4724289384       -2.1376586417
 H         -4.0983965568        1.3618290952       -1.4605830014
 H         -5.2860647672       -0.7737905330       -1.2608236026
 H         -6.5696426264        0.0543736057       -0.4077014494
 H         -5.1063758435       -1.0523641247        1.2414052564
 H         -4.9481679570        0.6751589282        1.4155785037
 H         -3.3319457507       -2.3224475970       -0.0523513446
 H         -0.8978776388       -2.5224197635       -0.3886432421
 H         -2.8391823338        1.7470669366        1.0953138174
 H         -0.4044653515        1.5438847601        0.7550405992
 H          2.9109018272       -1.8109482103       -0.4437260421
 H          5.3565296703       -2.0364803944       -0.6952800269
 H          6.8060908471       -0.0745171253       -0.3728153100
 H          5.8213052051        2.1060978352        0.1987323591
 H          3.3775593456        2.3249277721        0.4502870323
  33
        -46.39399792
 N         -5.1195648985        1.2488086655       -1.3185960199
 C         -5.4961289858        0.0179706126       -0.5677818844
 C         -4.7346572698       -0.1192376672        0.7487995011
 C         -3.2518346754       -0.2444928549        0.5583464750
 C         -2.4100529343        0.8424392586        0.7688947829
 C         -1.0517872572        0.7293100582        0.5785008930
 C         -2.6939057360       -1.4478346503        0.1406115286
 C         -1.3366559351       -1.5688863636       -0.0527459713
 C         -0.4907858415       -0.4794834275        0.1650974783
 N          0.8565606222       -0.5989010167       -0.0178454710
 N          1.6386016722        0.3958483880        0.1890928674
 C          2.9885401317        0.2681464754        0.0310902232
 C          3.5491395729       -0.9493818991       -0.3615160203
 C          4.9106419131       -1.0743619384       -0.5166195760
 C          5.7373784651        0.0097181220       -0.2835536640
 C          5.1973889465        1.2221517547        0.1060715712
 C          3.8367784596        1.3548150107        0.2630995863
 H         -4.1125713197        1.2545862159       -1.5389454837
 H         -5.3219150249        2.0956524930       -0.7663255847
 H         -5.6346912167        1.3283980040       -2.2094576715
 H         -5.3061657007       -0.8596157360       -1.1969365509
 H         -6.5781920294        0.0248418822       -0.3844955244
 H         -5.0951643610       -0.9880374320        1.3119202725
 H         -4.9445831133        0.7475803807        1.3841365257
 H         -2.8304727786        1.7803881832        1.0918568426
 H         -0.3970595466        1.5673723911        0.7493922556
 H         -3.3379831024       -2.2955312009       -0.0263905534
 H         -0.9056215031       -2.5037723634       -0.3700230895
 H          2.8927535253       -1.7849204514       -0.5378973780
 H          5.3342353051       -2.0192839391       -0.8198177245
 H          6.8048453923       -0.0905420668       -0.4052865274
 H          5.8450793227        2.0657962110        0.2877471175
 H          3.4051657036        2.2941818104        0.5668140147
  33
        -46.39394353
 N         -5.2792738481        0.2624561365       -1.6352500121
 C         -5.4003097595        0.8176143773       -0.2576782140
 C         -4.7223111724       -0.0636410381        0.7890842276
 C         -3.2443063051       -0.2008219116        0.5714631794
 C         -2.7102054712       -1.3505489737       -0.0007953342
 C         -1.3560858120       -1.4695967395       -0.2155611180
 C         -2.3819573610        0.8345345308        0.9148604218
 C         -1.0266921769        0.7235306948        0.7025972060
 C         -0.4895309661       -0.4317871008        0.1344319520
 N          0.8545550562       -0.5491700703       -0.0722494376
 N          1.6523943623        0.4046580497        0.2401469880
 C          2.9999869202        0.2755287014        0.0644313458
 C          3.5433293414       -0.9051498388       -0.4469427951
 C          4.9026036339       -1.0317347178       -0.6193457691
 C          5.7440800365        0.0142088284       -0.2862067712
 C          5.2211976755        1.1899462907        0.2213613358
 C          3.8629870115        1.3237748246        0.3969686711
 H         -5.7343142318        0.8687483549       -2.3352236479
 H         -5.7178356627       -0.6684817365       -1.6991561562
 H         -4.2900449978        0.1594954474       -1.9075298585
 H         -6.4622277668        0.9510748802       -0.0150702571
 H         -4.9609284289        1.8219193973       -0.2347285375
 H         -5.1815249398       -1.0578402730        0.7823637892
 H         -4.8980041844        0.3321375037        1.7961213150
 H         -3.3688987803       -2.1590652938       -0.2715860641
 H         -0.9428363800       -2.3639764872       -0.6517528969
 H         -2.7854844157        1.7301489112        1.3578600540
 H         -0.3567977783        1.5219072828        0.9738309129
 H          2.8755909241       -1.7113332429       -0.7004357855
 H          5.3129520871       -1.9482063847       -1.0142173153
 H          6.8097435828       -0.0872503982       -0.4219301676
 H          5.8803415447        2.0039341469        0.4805926276
 H          3.4445563683        2.2346404369        0.7921947773
  33
        -46.38992679
 N         -6.7620044150        0.4681821081        0.7692228141
 C         -5.2850343731        0.2817294647        0.8645563971
 C         -4.6212918662        0.1448772653       -0.5013811492
 C         -3.1352763161       -0.0485038284       -0.4167048209
 C         -2.5897480716       -1.3246198936       -0.3262679924
 C         -1.2294271616       -1.5061297090       -0.2237186387
 C         -2.2782727134        1.0463389622       -0.3871211461
 C         -0.9168192961        0.8730989547       -0.2841387167
 C         -0.3681361139       -0.4070039165       -0.2020594231
 N          0.9815370502       -0.5834560603       -0.1009242726
 N          1.7734271141        0.4242423504       -0.0669489776
 C          3.1249384313        0.2501718741        0.0140652787
 C          3.6792708827       -1.0313334758        0.0485125497
 C          5.0424306797       -1.2011884945        0.1293863981
 C          5.8767459566       -0.0990917891        0.1776092961
 C          5.3428260748        1.1765213521        0.1444865996
 C          3.9807418127        1.3543121000        0.0633121875
 H         -7.1988357552        0.5604239115        1.6992220630
 H         -7.2072127129       -0.3312525035        0.2944850921
 H         -6.9953560359        1.3156996797        0.2301421620
 H         -5.0659079182       -0.6044753792        1.4717911668
 H         -4.8430612843        1.1260439612        1.4068059560
 H         -4.8391029370        1.0300311535       -1.1083675917
 H         -5.0671410304       -0.6938351092       -1.0462640819
 H         -3.2459980555       -2.1791331836       -0.3392146684
 H         -0.8077960178       -2.4955728844       -0.1585354125
 H         -2.6911148559        2.0398642308       -0.4476483380
 H         -0.2511252112        1.7193690517       -0.2656368801
 H          3.0167743411       -1.8796136448        0.0094316704
 H          5.4613577622       -2.1951846699        0.1548465555
 H          6.9454111196       -0.2344607200        0.2410385808
 H          5.9962750995        2.0342530078        0.1825694245
 H          3.5536065255        2.3431809040        0.0372048430
  33
        -46.38803112
 N         -5.6850735874       -1.3989097551       -1.1680302758
 C         -5.3823587668        0.0350354975       -0.8838992586
 C         -4.7248492911        0.2487807084        0.4884485817
 C         -3.2212238246        0.3061654398        0.4726533867
 C         -2.4626618164       -0.4983641111       -0.3702895533
 C         -1.0876406224       -0.4479840999       -0.3545780471
 C         -2.5513456538        1.1553679240        1.3490807487
 C         -1.1763940025        1.2133096510        1.3728910062
 C         -0.4191413221        0.4113976445        0.5172688568
 N          0.9444688827        0.4685962352        0.5367313108
 N          1.6451807389       -0.2625001035       -0.2496429379
 C          3.0087155329       -0.1992368844       -0.2310403091
 C          3.7688312717       -0.9930663564       -1.0950950543
 C          5.1430517260       -0.9247074195       -1.0757039037
 C          5.7842168491       -0.0682082880       -0.1990190496
 C          5.0454216354        0.7230033005        0.6620033043
 C          3.6709345620        0.6601069816        0.6484099950
 H         -6.0869985866       -1.5254983575       -2.1097536872
 H         -6.3692376067       -1.7698200913       -0.4917760862
 H         -4.8468746045       -1.9946751120       -1.1055557781
 H         -6.3211455051        0.6009960795       -0.9498687833
 H         -4.7414676934        0.4487495101       -1.6717027743
 H         -5.0422775446       -0.5468134771        1.1707709175
 H         -5.0979415812        1.1777336377        0.9357961430
 H         -2.9587355850       -1.1663234878       -1.0510541316
 H         -0.5025835241       -1.0690286109       -1.0120129018
 H         -3.1229980094        1.7754290979        2.0200781410
 H         -0.6636746060        1.8753605354        2.0506457089
 H          3.2585608070       -1.6561308869       -1.7738148847
 H          5.7223219066       -1.5406355824       -1.7461184471
 H          6.8619899049       -0.0170527926       -0.1870341964
 H          5.5477759520        1.3902569008        1.3449908139
 H          3.0820564078        1.2695065335        1.3133958274
  33
        -46.38782079
 N         -6.1115311233        1.3614774642       -0.1525614919
 C         -5.5375733380        0.2713634887        0.6905545095
 C         -4.6523985216       -0.7001288590       -0.1056246580
 C         -3.1800690052       -0.3913026766       -0.0741747069
 C         -2.2546063819       -1.4308284129       -0.0586094454
 C         -0.9020831363       -1.1770636916       -0.0510302835
 C         -2.7010883282        0.9140454082       -0.0993459058
 C         -1.3506727094        1.1786257116       -0.0924477652
 C         -0.4253607218        0.1337903235       -0.0657703257
 N          0.9152178352        0.3902215541       -0.0550972953
 N          1.7645175992       -0.5695215642       -0.0192871404
 C          3.1061675507       -0.3183230178       -0.0040354732
 C          4.0243014034       -1.3712314467        0.0478720665
 C          5.3763103228       -1.1160496154        0.0652322056
 C          5.8381877046        0.1873274276        0.0309026032
 C          4.9416613568        1.2393263305       -0.0210058074
 C          3.5881469676        0.9919974843       -0.0382087007
 H         -6.6661720240        2.0266479678        0.4080903585
 H         -6.7372804463        0.9749652907       -0.8750598484
 H         -5.3832207020        1.9007183568       -0.6425573563
 H         -6.3695573684       -0.2688902514        1.1615541814
 H         -4.9651124051        0.6993536719        1.5222196744
 H         -4.9874848932       -0.7255589686       -1.1479089024
 H         -4.7959083206       -1.7209085730        0.2681444493
 H         -2.6068795661       -2.4492145503       -0.0538042017
 H         -0.1877969455       -1.9832166962       -0.0356763392
 H         -3.3985030999        1.7321713361       -0.1166157557
 H         -0.9860942278        2.1921982737       -0.1070821590
 H          3.6528318643       -2.3822354250        0.0747298250
 H          6.0781361370       -1.9346560682        0.1060519381
 H          6.8991524646        0.3835294315        0.0448170629
 H          5.3044389955        2.2550704453       -0.0478694040
 H          2.8778705749        1.8007565497       -0.0782354528
  33
        -46.38706576
 N         -6.9584038681        0.3275590471        0.0024104030
 C         -5.5165472788        0.7054258785        0.0724070952
 C         -4.5916179048       -0.4997937026       -0.0737786741
 C         -3.1148896960       -0.2093933290       -0.0283670725
 C         -2.2192746307       -1.2639542290       -0.1757704566
 C         -0.8599012430       -1.0537507740       -0.1412116426
 C         -2.5985953872        1.0704330864        0.1571139697
 C         -1.2400354283        1.2901964192        0.1923477435
 C         -0.3452829155        0.2293449080        0.0429868244
 N          1.0022064362        0.4446216383        0.0744461954
 N          1.8240283435       -0.5310137714       -0.0536835413
 C          3.1723666165       -0.3192361977       -0.0319860557
 C          4.0607370214       -1.3912130855       -0.1580091814
 C          5.4195642190       -1.1757085394       -0.1374694903
 C          5.9178656679        0.1063718656        0.0081486267
 C          5.0510484875        1.1768241744        0.1341159768
 C          3.6909405803        0.9691164744        0.1148922710
 H         -7.2038426295       -0.3403873246        0.7482234609
 H         -7.1816178794       -0.1204487118       -0.8988217026
 H         -7.5766815257        1.1475429382        0.1035674717
 H         -5.3217622813        1.2111970996        1.0252636125
 H         -5.2975589838        1.4398806642       -0.7114591313
 H         -4.8174787438       -1.0084227938       -1.0171441732
 H         -4.8281693161       -1.2274823928        0.7097882089
 H         -2.6033525031       -2.2605982236       -0.3192947425
 H         -0.1697310908       -1.8726980450       -0.2563275874
 H         -3.2680454286        1.9052642478        0.2753688618
 H         -0.8454137090        2.2823887710        0.3353022555
 H          3.6609529289       -2.3853186212       -0.2707375569
 H          6.0982799657       -2.0088283219       -0.2351591782
 H          6.9840647256        0.2714881487        0.0234498830
 H          5.4422500305        2.1758984124        0.2473659685
 H          3.0035358584        1.7927175268        0.2114974850
