  33
        -46.39408594
 N         -5.1074298361        1.3390395297       -1.2493704638
 C         -5.4858368061        0.0623729800       -0.5803452059
 C         -4.7367884168       -0.1543265638        0.7326605796
 C         -3.2529984279       -0.2756534898        0.5478596437
 C         -2.6906302482       -1.4745372949        0.1234120864
 C         -1.3325287693       -1.5907188438       -0.0661283053
 C         -2.4150208949        0.8124869099        0.7672065929
 C         -1.0559794495        0.7048059617        0.5785319820
 C         -0.4904000043       -0.4997687369        0.1598406612
 N          0.8575609393       -0.6128816144       -0.0226270213
 N          1.6316412031        0.3925189100        0.1615599301
 C          2.9836746329        0.2697540960        0.0183625503
 C          3.5582332611       -0.9610810662       -0.3067356045
 C          4.9219691782       -1.0809959073       -0.4453800598
 C          5.7368811784        0.0217418154       -0.2638301338
 C          5.1828902986        1.2477137492        0.0578521029
 C          3.8200697466        1.3751749983        0.1990851215
 H         -5.3178134630        2.1491280069       -0.6472469259
 H         -5.6151993200        1.4724289384       -2.1376586417
 H         -4.0983965568        1.3618290952       -1.4605830014
 H         -5.2860647672       -0.7737905330       -1.2608236026
 H         -6.5696426264        0.0543736057       -0.4077014494
 H         -5.1063758435       -1.0523641247        1.2414052564
 H         -4.9481679570        0.6751589282        1.4155785037
 H         -3.3319457507       -2.3224475970       -0.0523513446
 H         -0.8978776388       -2.5224197635       -0.3886432421
 H         -2.8391823338        1.7470669366        1.0953138174
 H         -0.4044653515        1.5438847601        0.7550405992
 H          2.9109018272       -1.8109482103       -0.4437260421
 H          5.3565296703       -2.0364803944       -0.6952800269
 H          6.8060908471       -0.0745171253       -0.3728153100
 H          5.8213052051        2.1060978352        0.1987323591
 H          3.3775593456        2.3249277721        0.4502870323
