  33
        -46.50799854
 N         -5.2607789892        0.3520377843       -1.6321451929
 C         -5.3777033364       -0.6991392731       -0.5801873238
 C         -4.7236600348       -0.2877437357        0.7371962730
 C         -3.2462057326       -0.0652202024        0.6113578579
 C         -2.3777054081       -1.1453349175        0.5074775305
 C         -1.0247008196       -0.9502581643        0.3673015294
 C         -2.7192393190        1.2202999854        0.5658879573
 C         -1.3673060855        1.4243410048        0.4252274953
 C         -0.4933472893        0.3395970858        0.3231441755
 N          0.8477911211        0.5390628974        0.1858145977
 N          1.6589636397       -0.4557313790        0.0953869314
 C          3.0000833057       -0.2548363356       -0.0396839050
 C          3.5272746785        1.0376266493       -0.0915250967
 C          4.8803099640        1.2357516264       -0.2285554403
 C          5.7342487308        0.1517549810       -0.3165473421
 C          5.2285026195       -1.1341705755       -0.2667870529
 C          3.8764085327       -1.3402973640       -0.1298422973
 H         -5.7001015761        0.0573100713       -2.5119957746
 H         -4.2746344716        0.5620388543       -1.8256457397
 H         -5.7127011236        1.2217746323       -1.3275083198
 H         -4.9180025066       -1.6243823394       -0.9452239803
 H         -6.4374403045       -0.9333560352       -0.4225089720
 H         -4.9032203756       -1.0451657054        1.5081737670
 H         -5.1959339895        0.6262099605        1.1101109452
 H         -2.7761757988       -2.1449486266        0.5406782196
 H         -0.3523833800       -1.7864156818        0.2897906903
 H         -3.3825005738        2.0642770466        0.6473825796
 H         -0.9629451999        2.4209283410        0.3927894992
 H          2.8517221696        1.8721142293       -0.0224336892
 H          5.2765510977        2.2374198265       -0.2676404195
 H          6.7950812622        0.3092807935       -0.4239658083
 H          5.8966501593       -1.9772270345       -0.3354689943
 H          3.4737674534       -2.3374776025       -0.0894775697
