23
 energy: -32.815057486201 gnorm: 0.000507667470 xtb: 6.5.1 (fef0646)
N            1.24803398550409        0.57264199608014       -0.05578538300502
C            2.63536671337031        0.12551201469249        0.12521148060178
C            3.13944509069031       -0.47927014210927       -1.15692611356010
C            3.89780160112749        0.27459777911645       -2.04395280701937
C            4.33094792126348       -0.26220050809101       -3.23977231235006
C            4.01352286447046       -1.57491096965329       -3.58892015452462
C            4.44144360805148       -2.19177541117145       -4.83861100143279
C            5.23833672577307       -1.65824574188216       -5.75655535303982
C            3.24678014825051       -2.32308383546052       -2.69309896368994
C            2.81682190872005       -1.78697188617300       -1.49650852751165
Cl          -0.63553111957031       -1.64684868995784       -0.41538760793971
H            0.91131862430373        1.05827939169380        0.76883641788869
H            0.27729602298380       -0.63412915537421       -0.27007655752609
H            1.17582197626240        1.19320564085534       -0.85576149518203
H            2.63273668965153       -0.62331490531113        0.92110947507736
H            3.29327305003965        0.95294446812909        0.42637314056995
H            4.15634826697759        1.29483620967196       -1.79381555503456
H            4.91578890988412        0.34856715901999       -3.90965154942851
H            4.05347110925166       -3.19026848366732       -4.99980809902018
H            5.66436904269653       -0.67431568368318       -5.66031950939823
H            5.49694982638976       -2.19537941808366       -6.65289456724214
H            2.98668790985536       -3.34160180215715       -2.94316484068356
H            2.21965912405296       -2.37970802648198       -0.82158011653884
