  41
        -42.59297886
 N          6.7008872891       -1.0689300812       -0.4661183928
 C          6.3885191368        0.1347889500        0.3598070140
 C          5.0777375748        0.8083820318       -0.0357158079
 C          3.8433833041       -0.0435057341        0.2586448680
 C          2.5324259553        0.6611947950       -0.0926947667
 C          1.2975792783       -0.1905468732        0.2025036778
 C         -0.0143403782        0.5176217072       -0.1365329093
 C         -1.2491930887       -0.3309449928        0.1679579062
 C         -2.5615385392        0.3808395230       -0.1615089808
 C         -3.7967140293       -0.4622304888        0.1564618294
 C         -5.1092731874        0.2538699619       -0.1627863812
 C         -6.3458727922       -0.5843410689        0.1648205107
 C         -7.6486544135        0.1366082721       -0.1476749265
 H          7.6070859269       -1.4784728571       -0.2098520769
 H          6.7344470848       -0.8270306954       -1.4630513445
 H          5.9864131550       -1.7960289403       -0.3454584994
 H          7.2173981329        0.8478857514        0.2744116178
 H          6.3523865741       -0.1490970378        1.4175532078
 H          5.1027771378        1.0570131844       -1.1017911949
 H          4.9794963286        1.7697193078        0.4821509757
 H          3.8356761401       -0.3244407700        1.3175208500
 H          3.9039662942       -0.9893697438       -0.2891560370
 H          2.5393166332        0.9444792590       -1.1510433924
 H          2.4653813033        1.6070296803        0.4562080903
 H          1.2956828951       -0.4795953213        1.2593393444
 H          1.3602914130       -1.1334961409       -0.3518832813
 H         -0.0156823742        0.8027738641       -1.1944286423
 H         -0.0739193411        1.4627100360        0.4146001784
 H         -1.2440556631       -0.6196997679        1.2248716523
 H         -1.1931419524       -1.2742253092       -0.3865846444
 H         -2.5712301762        0.6629690398       -1.2202114161
 H         -2.6128557318        1.3277460235        0.3873901945
 H         -3.7828291683       -0.7484371361        1.2140089223
 H         -3.7491641408       -1.4070539537       -0.3962764912
 H         -5.1261668267        0.5355826019       -1.2214936977
 H         -5.1529221123        1.2013505065        0.3857546910
 H         -6.3188290552       -0.8698173648        1.2234134740
 H         -6.2979253401       -1.5311086777       -0.3866866321
 H         -7.7300990810        1.0654532247        0.4177900123
 H         -8.5211660309       -0.4724033350        0.0937407757
 H         -7.7114139657        0.3961289854       -1.2049491619
