  41
        -42.48234980
 N         -5.8514524062       -1.4703784956       -0.6839991585
 C         -5.6325161160       -0.7581599612        0.6067766997
 C         -5.2639498433        0.7102165252        0.4203443405
 C         -3.9544775043        0.9379298190       -0.3386942170
 C         -2.7197267191        0.3876908000        0.3770008026
 C         -1.4130374662        0.7025936174       -0.3531785285
 C         -0.1767132167        0.1495811613        0.3571499836
 C          1.1298929947        0.4702361526       -0.3702703112
 C          2.3664085087       -0.0869822822        0.3364321040
 C          3.6719635710        0.2301638709       -0.3943383240
 C          4.9088359131       -0.3306996992        0.3092442164
 C          6.2145157229       -0.0144459006       -0.4227396830
 C          7.4410188029       -0.5760810469        0.2794509422
 H         -4.9918433422       -1.5027290631       -1.2521336105
 H         -6.5763857214       -0.9997745979       -1.2460555121
 H         -6.1591058240       -2.4443102131       -0.5367993060
 H         -4.8539777788       -1.2738903607        1.1801240858
 H         -6.5421825687       -0.8415537157        1.2155322435
 H         -5.2007273461        1.2033829106        1.3982893396
 H         -6.0849509046        1.2143039991       -0.1043336458
 H         -3.8119323532        2.0116427903       -0.5142181047
 H         -4.0231079725        0.4972117503       -1.3393790100
 H         -2.8124812072       -0.6967024892        0.5023339803
 H         -2.6764085913        0.7914311419        1.3951676897
 H         -1.3120401541        1.7874760221       -0.4732811479
 H         -1.4581660574        0.3059095995       -1.3740137867
 H         -0.2752098429       -0.9359402134        0.4735366507
 H         -0.1337864261        0.5432767001        1.3792470576
 H          1.2300164523        1.5559167926       -0.4835087346
 H          1.0852736053        0.0798176000       -1.3935137991
 H          2.2650638971       -1.1723349975        0.4519095642
 H          2.4132243832        0.3054816128        1.3588804049
 H          3.7747212792        1.3155769772       -0.5076534224
 H          3.6236350771       -0.1600615659       -1.4175162915
 H          4.8060090471       -1.4161289484        0.4229233468
 H          4.9580846065        0.0596819965        1.3323960085
 H          6.3117234424        1.0726630623       -0.5361398670
 H          6.1581014778       -0.4027642526       -1.4475207489
 H          7.3822692949       -1.6621247787        0.3700127292
 H          7.5380044173       -0.1730728711        1.2889011205
 H          8.3631711563       -0.3416870761       -0.2567344617
