  12
        -15.33640682
 N         -1.6138942204        0.8346432392        0.1530401586
 C         -1.1846703366       -0.4976763556       -0.3727040083
 C          0.1200905020       -1.0009763651        0.2543998141
 C          1.2027556887       -0.1163076386        0.0518191266
 N          2.0589345836        0.6415560184       -0.1221558118
 H         -0.8916487002        1.5498924239       -0.0182805017
 H         -1.7830776192        0.7994719170        1.1697137702
 H         -2.4844382928        1.1589895309       -0.2957660693
 H         -1.0576497415       -0.4199415395       -1.4627658526
 H         -1.9938749896       -1.2255554593       -0.2126607224
 H          0.3927072800       -1.9856482201       -0.1517191329
 H         -0.0133276280       -1.1465719484        1.3345744184
