12
 energy: -15.339534669130 gnorm: 0.000558007427 xtb: 6.5.1 (fef0646)
N            0.92297551534571       -0.02491712429673       -0.01131778948704
C            2.41613576488372       -0.08829614903794       -0.06787980110230
C            2.92899303142126       -1.14915283771237        0.90747821171107
C            2.34536121778583       -0.91192167935546        2.21081542904767
N            1.78975836695046       -0.66791562467750        3.17729209517616
H            0.55577827490303        0.74984009870610       -0.57912039363694
H            0.63314370278886        0.11220403441901        0.97341557609992
H            0.50348437517479       -0.90422104112028       -0.34464525574159
H            2.80797458011367        0.89288885448677        0.20857740946719
H            2.72938871173557       -0.32069817789148       -1.08652748783309
H            4.01676767704297       -1.09037105104834        0.98407457149381
H            2.67051878185414       -2.16067930247175        0.58287743480518
