21
 energy: -30.063926683425 gnorm: 0.000622141610 xtb: 6.5.1 (fef0646)
N            2.85790466230703        3.37078541682432        1.88787322932868
C            2.55237353484886        1.93967305842733        2.13021137246147
C            3.10185768189803        1.08197155793489        0.99156741069509
C            4.60829899766117        1.08185711244167        0.95963527059473
C            5.32429358711424        0.39088008361360        1.93261223588496
C            6.70695066746432        0.37661133929594        1.92073950764087
C            7.36344908166397        1.06424597413440        0.91716873387707
F            8.73071741411191        1.04747408048235        0.89152280628161
C            6.68696705519994        1.76294762262628       -0.06240408196047
C            5.30214304009777        1.76889339044246       -0.02970074695979
H            2.52445922064078        3.95337408780572        2.66419959893711
H            2.40910470694357        3.68869561265668        1.02044455550240
H            3.87258275116174        3.49661265714743        1.78992335788933
H            1.47299281089095        1.81078504620031        2.19741022225790
H            3.00400186042078        1.63446108691601        3.07363236427514
H            2.71420876909094        1.43317520240490        0.03593075582320
H            2.75326462266830        0.05943428278422        1.13405297773189
H            4.80247790067917       -0.15741544421320        2.70131933916258
H            7.27641026065771       -0.16121937931918        2.66153801427411
H            7.23955212671558        2.28021049385357       -0.83004322454945
H            4.76910924776342        2.29896671754036       -0.80407369914837
