42
 energy: -62.875369645667 gnorm: 0.000778639522 xtb: 6.5.1 (fef0646)
N            2.78586116941497       -0.88083239973151       -0.12867499722725
C            2.78580327112763        0.60624047927211       -0.08180630080044
C            3.58900442689388        1.05736882037381       -1.31105302923740
O            4.68590316458422        0.16892476478960       -1.35612052495883
C            5.38446879911317        0.01875910710200       -2.56175323948625
C            5.33705885578115        0.93028703956204       -3.57884716721165
C            6.04372707971690        0.68654722264079       -4.75555365229233
C            6.79721553831749       -0.45871050329304       -4.94092598730892
C            6.87676687999668       -1.40017112731270       -3.87702543110340
C            7.66178503128372       -2.58065678812607       -3.99023354629129
C            7.69586760870353       -3.46416427659663       -2.92257419830500
C            7.00103641201825       -3.21660979598338       -1.74303115324285
C            6.24670604100893       -2.08265040775521       -1.61052210387999
C            6.16382851083994       -1.15936986787456       -2.67053800345307
C            7.51182961116024       -0.72151259086646       -6.18275556524490
C            7.44120965174981        0.13539938282290       -7.26938448366369
C            8.13885875245746       -0.11575407577347       -8.44998209462144
C            8.92108254579752       -1.23203786093400       -8.56243129316523
C            9.02124859048324       -2.14098100709379       -7.49102320024219
C            9.82352534636950       -3.29331301202434       -7.60399423634701
C            9.91864328265810       -4.17267746659824       -6.56095531884700
C            9.21539920632438       -3.93879602315683       -5.38005789725665
C            8.40831293750517       -2.82411326628665       -5.21810156727924
C            8.30776783354335       -1.89360910694450       -6.28702573850648
H            2.71738096189507       -1.31937760628551        0.79306571664879
H            3.73833362512258       -1.05483258261356       -0.57801090700740
H            2.05118082299003       -1.25202594214293       -0.74012815734849
H            3.30316792871859        0.92188369241365        0.82453881641204
H            1.77708598872192        1.01444867927160       -0.08496944810053
H            3.91468664990357        2.09498905067839       -1.19204516099854
H            2.98918625048375        0.97513894668122       -2.22706620748796
H            4.77127315527589        1.84453266397370       -3.49041901080452
H            5.98136762538568        1.43515309299019       -5.52606922625111
H            8.27642002396465       -4.36934582289962       -2.97851253529320
H            7.06831815100778       -3.92357830791964       -0.92974303674474
H            5.74296599389009       -1.87277133692606       -0.67669965519237
H            6.83736402645987        1.02709349551086       -7.22838663112835
H            8.05617495582217        0.58044598508201       -9.27071072940657
H            9.47017809227078       -1.43459775381133       -9.46962404139247
H           10.35989317877688       -3.46563481780536       -8.52484440393455
H           10.53581598187655       -5.05450021138393       -6.64207943312967
H            9.32231604058410       -4.66054846502425       -4.58711521886799
