  21
        -25.72554439
 N          2.3058802043        0.1919482164        1.1890608740
 C          1.6640483578       -0.4177185094       -0.0199020983
 C          2.3180246380        0.0757439500       -1.3068195759
 C          0.1697082383       -0.1928132928       -0.0156298217
 C         -0.3645280210        1.0999590597       -0.0448695397
 C         -1.7420776201        1.3025933548       -0.0355434551
 C         -2.6065912698        0.2147108473        0.0051462648
 C         -2.0915697617       -1.0760108542        0.0371840925
 C         -0.7142821723       -1.2784657388        0.0271767107
 H          3.3115965565       -0.0273242372        1.2342985007
 H          1.8684205080       -0.1525802403        2.0557686333
 H          2.2122141801        1.2167133137        1.1793685794
 H          1.8287969016       -1.5069204568        0.0479946980
 H          2.2030118267        1.1544271350       -1.4118277669
 H          1.8706494543       -0.3906430050       -2.1861540858
 H          3.3873678012       -0.1410676858       -1.3187988311
 H          0.2988152018        1.9478926206       -0.0744243826
 H         -2.1403816491        2.3052835166       -0.0598525722
 H         -3.6746548208        0.3719082283        0.0123288520
 H         -2.7609200905       -1.9220263586        0.0703332542
 H         -0.3222896006       -2.2817515982        0.0532629280
