  17
        -24.30454143
 N         -1.9180464039        1.0805339550        0.2437900841
 C         -2.0611762263       -0.3557212766       -0.1404064912
 C         -0.8995630173       -1.2391841890        0.3371382726
 C          0.4086889565       -1.1010784233       -0.4649197467
 C          1.2225737302        0.1238168070       -0.1325896020
 O          2.4357113406       -0.0813115772        0.4016180259
 O          0.7786024257        1.2230728738       -0.3427849692
 H         -0.9532540009        1.3656457841        0.0031900623
 H         -2.0429082116        1.2221002388        1.2562660903
 H         -2.5802895569        1.6953738558       -0.2519838896
 H         -2.1496518986       -0.4295948781       -1.2322700187
 H         -3.0171825200       -0.7237828184        0.2577446903
 H         -1.2212792152       -2.2893253593        0.3087793854
 H         -0.6947930176       -1.0299355298        1.3934057791
 H          0.1979641661       -1.1005349117       -1.5392005345
 H          1.0566090719       -1.9687203815       -0.2866738242
 H          2.8788915597        0.7705193954        0.5449055517
  17
        -24.30445904
 N         -1.9160605405        1.0801110984        0.2449418146
 C         -2.0613696355       -0.3564350257       -0.1374315388
 C         -0.8984347608       -1.2401897156        0.3361614799
 C          0.4080517926       -1.0997411356       -0.4682868866
 C          1.2221114331        0.1244216285       -0.1337283743
 O          2.4321468711       -0.0818197557        0.4070704614
 O          0.7803351226        1.2238869834       -0.3476944320
 H         -2.5792894737        1.6947934851       -0.2493959202
 H         -0.9516256625        1.3647438270        0.0015173848
 H         -2.0379642688        1.2227750868        1.2576257091
 H         -2.1541893155       -0.4311505344       -1.2288737811
 H         -3.0159745001       -0.7237229818        0.2647684954
 H         -1.2196717659       -2.2904454602        0.3065236216
 H         -0.6915376666       -1.0327846969        1.3923924400
 H          0.1950481528       -1.0958321203       -1.5421135681
 H          1.0565896569       -1.9677287654       -0.2940205621
 H          2.8761630755        0.7694621341        0.5509993557
  17
        -24.30433246
 N         -1.9126251844        1.0797718000        0.2495736081
 C         -2.0603254148       -0.3556765758       -0.1358371504
 C         -0.8977877659       -1.2420515880        0.3337265873
 C          0.4080985434       -1.0998221449       -0.4712497364
 C          1.2210500106        0.1246474503       -0.1354356171
 O          2.4270709618       -0.0804943446        0.4145814538
 O          0.7813894586        1.2236685739       -0.3558883707
 H         -0.9494343397        1.3647346150        0.0023609005
 H         -2.0299620735        1.2197939587        1.2631678739
 H         -2.5779697462        1.6960891515       -0.2401734225
 H         -2.1550055987       -0.4275960865       -1.2273143554
 H         -3.0147173924       -0.7227341326        0.2670619725
 H         -1.2198982237       -2.2919297009        0.3006165199
 H         -0.6898909809       -1.0385509800        1.3905097377
 H          0.1944983750       -1.0945360323       -1.5449594867
 H          1.0573257299       -1.9675798689       -0.2984655935
 H          2.8706377930        0.7709853296        0.5587614687
  17
        -24.29992126
 N         -1.8248240582        1.1109420346        0.0915881303
 C         -2.0749554819       -0.3625222801        0.1131506199
 C         -0.9192664634       -1.2157308691       -0.4237514118
 C          0.3949690366       -1.1235888765        0.3681879107
 C          1.1993434952        0.1063345988        0.0366680916
 O          2.5314372739       -0.0351677471       -0.0254761050
 O          0.6400401399        1.1558638871       -0.1479392864
 H         -2.6699750017        1.6639543016        0.3025246443
 H         -1.4569804070        1.4084566467       -0.8276543076
 H         -1.0907925502        1.3752064299        0.7716090037
 H         -2.9826484735       -0.5635899017       -0.4731448280
 H         -2.3171158851       -0.6653935969        1.1399541355
 H         -0.7166864428       -0.9336000363       -1.4640532164
 H         -1.2431622500       -2.2646963643       -0.4656744753
 H          1.0341756574       -1.9914966650        0.1625568433
 H          0.1968219046       -1.1456428138        1.4443009372
 H          2.9442892021        0.8185006660       -0.2336418580
  17
        -24.29984772
 N         -1.9482637322        0.9486341042        0.2191639498
 C         -1.7477635601       -0.2825695158       -0.6014482618
 C         -0.8702693151       -1.3526565146        0.0682180817
 C          0.3467054250       -0.8264052732        0.8444563466
 C          1.1666667584        0.1725381497        0.0728663922
 O          2.2241943465       -0.2856348628       -0.6107828000
 O          0.8293715000        1.3299084486        0.0838763564
 H         -2.5599761679        1.6340298885       -0.2480716094
 H         -1.0174067295        1.3836949175        0.3391669112
 H         -2.3473686615        0.7393174881        1.1452099044
 H         -1.2880483821        0.0232776604       -1.5522941413
 H         -2.7268054499       -0.7019562768       -0.8718619801
 H         -0.5224164377       -2.0586731828       -0.6978877731
 H         -1.4888142721       -1.9539057774        0.7470847526
 H          1.0039085337       -1.6528688145        1.1414607277
 H          0.0274626354       -0.3478454725        1.7762785471
 H          2.6861121988        0.4538439027       -1.0378535341
  17
        -24.29700288
 N         -2.0103077245        1.1483768446        0.0147179353
 C         -1.9666831616       -0.2929277265       -0.3846357860
 C         -0.9786428921       -1.1266745326        0.4527229305
 C          0.4590100968       -1.2047441491       -0.0985420362
 C          1.2480119718        0.0825658669        0.0048264637
 O          2.5647693644        0.0528236721       -0.2897179647
 O          0.6683808232        1.0874524963        0.3345976195
 H         -2.4720519942        1.2812745817        0.9255954091
 H         -2.4871178051        1.7431160469       -0.6791448519
 H         -1.0329846898        1.4655923728        0.1132665815
 H         -1.7027852003       -0.3688441589       -1.4476217551
 H         -2.9857690681       -0.6978740066       -0.3062085433
 H         -1.3706944957       -2.1471950927        0.5616707513
 H         -0.9439380314       -0.7193231362        1.4703488326
 H          0.4335667423       -1.5210022608       -1.1459706822
 H          1.0133166753       -1.9831433643        0.4381555845
 H          2.9192121666       -0.8221995488       -0.5416343420
  17
        -24.29680976
 N         -2.0030465752        1.1500082164        0.0018512922
 C         -1.9569005231       -0.2919661159       -0.3950422383
 C         -0.9818434039       -1.1257324800        0.4573168722
 C          0.4612698788       -1.2103559814       -0.0775872955
 C          1.2447068340        0.0813340674        0.0108818202
 O          2.5508015698        0.0632595816       -0.3284448848
 O          0.6701149391        1.0785481752        0.3716411332
 H         -2.4665195212        1.7452233771       -0.7003971026
 H         -1.0267895408        1.4650016526        0.1170138219
 H         -2.4800480770        1.2850442754        0.9046320991
 H         -1.6783996293       -0.3698975637       -1.4541752254
 H         -2.9776866634       -0.6950056845       -0.3301843009
 H         -1.3782951006       -2.1444400780        0.5672111761
 H         -0.9568296658       -0.7128898341        1.4730746158
 H          0.4470752942       -1.5456011291       -1.1192660322
 H          1.0125808888       -1.9769572718        0.4788463427
 H          2.9029752008       -0.8081908760       -0.5953779912
  17
        -24.29660593
 N         -1.9970014896        1.1511139769       -0.0082690961
 C         -1.9493777104       -0.2916354278       -0.4028825224
 C         -0.9843575721       -1.1252567726        0.4609351850
 C          0.4629346820       -1.2144384200       -0.0611377384
 C          1.2421128452        0.0805018238        0.0157106960
 O          2.5385427573        0.0715898428       -0.3589140362
 O          0.6727754183        1.0717761714        0.4006122840
 H         -2.4858702686        1.2882939015        0.8877123543
 H         -2.4496011020        1.7468132878       -0.7173684846
 H         -1.0217433675        1.4642047186        0.1201850046
 H         -1.6598275839       -0.3716359767       -1.4588549487
 H         -2.9714232597       -0.6929913344       -0.3481836550
 H         -1.3839677988       -2.1426452859        0.5712585418
 H         -0.9670675047       -0.7083887913        1.4752335922
 H          0.4574073066       -1.5641944885       -1.0981355229
 H          1.0118021103       -1.9717243735        0.5103887173
 H          2.8880961844       -0.7965893548       -0.6396961835
  17
        -24.29651494
 N         -1.9941299249        1.1515452760       -0.0128373410
 C         -1.9467899907       -0.2918236558       -0.4054226544
 C         -0.9852347613       -1.1250611238        0.4625645407
 C          0.4634101534       -1.2157740204       -0.0552381699
 C          1.2410789931        0.0802939538        0.0175759615
 O          2.5334413293        0.0749222305       -0.3707759845
 O          0.6740050637        1.0690086582        0.4123605419
 H         -2.4417049161        1.7470961631       -0.7250288439
 H         -1.0191406451        1.4632545258        0.1210312066
 H         -2.4879322790        1.2906500532        0.8803119358
 H         -1.6539433380       -0.3735945309       -1.4603438637
 H         -2.9693807549       -0.6921399198       -0.3534463470
 H         -1.3858460029       -2.1420039451        0.5733005554
 H         -0.9705757063       -0.7065034282        1.4762260583
 H          0.4607301236       -1.5704251489       -1.0905739937
 H          1.0115112961       -1.9698113202        0.5213138609
 H          2.8819117081       -0.7920358044       -0.6566407456
  17
        -24.29642241
 N         -1.9914085803        1.1519939528       -0.0164575503
 C         -1.9436841807       -0.2915669451       -0.4085215537
 C         -0.9862025431       -1.1250594346        0.4636896582
 C          0.4641708128       -1.2174004500       -0.0487140010
 C          1.2399358707        0.0800429177        0.0193494766
 O          2.5282136609        0.0782434415       -0.3823980547
 O          0.6749413928        1.0663260020        0.4231831318
 H         -2.4348049719        1.7478709277       -0.7309888222
 H         -1.0167895108        1.4627865421        0.1222826845
 H         -2.4895258492        1.2917753530        0.8741924957
 H         -1.6466834352       -0.3739521552       -1.4622335177
 H         -2.9667770265       -0.6911023096       -0.3604672018
 H         -1.3880774711       -2.1415234270        0.5741649666
 H         -0.9747571917       -0.7052922421        1.4769078261
 H          0.4652265813       -1.5779980154       -1.0819976590
 H          1.0112392004       -1.9674322404        0.5340429112
 H          2.8759607475       -0.7877232516       -0.6721142124
