  17
  -24.304541430000000       0.11866756269790747      !mtd4
 N         -1.9180464039        1.0805339550        0.2437900841
 C         -2.0611762263       -0.3557212766       -0.1404064912
 C         -0.8995630173       -1.2391841890        0.3371382726
 C          0.4086889565       -1.1010784233       -0.4649197467
 C          1.2225737302        0.1238168070       -0.1325896020
 O          2.4357113406       -0.0813115772        0.4016180259
 O          0.7786024257        1.2230728738       -0.3427849692
 H         -0.9532540009        1.3656457841        0.0031900623
 H         -2.0429082116        1.2221002388        1.2562660903
 H         -2.5802895569        1.6953738558       -0.2519838896
 H         -2.1496518986       -0.4295948781       -1.2322700187
 H         -3.0171825200       -0.7237828184        0.2577446903
 H         -1.2212792152       -2.2893253593        0.3087793854
 H         -0.6947930176       -1.0299355298        1.3934057791
 H          0.1979641661       -1.1005349117       -1.5392005345
 H          1.0566090719       -1.9687203815       -0.2866738242
 H          2.8788915597        0.7705193954        0.5449055517
  17
  -24.304538330000000       0.11827892294566954      !mtd1
 N         -1.9176477832        1.0804223446        0.2436661970
 C         -2.0613093172       -0.3559911488       -0.1396655782
 C         -0.8992706735       -1.2392955543        0.3371018378
 C          0.4084910450       -1.1006229029       -0.4656625175
 C          1.2225307931        0.1240257756       -0.1327529917
 O          2.4350965566       -0.0816438442        0.4025523918
 O          0.7788475555        1.2232943378       -0.3434720219
 H         -2.0418667142        1.2224862213        1.2559999602
 H         -2.5800436607        1.6952824428       -0.2518793307
 H         -0.9527805169        1.3654500342        0.0025197174
 H         -2.1508199419       -0.4302990204       -1.2314097568
 H         -3.0169639629       -0.7238258792        0.2595175325
 H         -1.2207451166       -2.2895099426        0.3087237554
 H         -0.6939621874       -1.0301715540        1.3932903313
 H          0.1970974535       -1.0990823695       -1.5398059664
 H          1.0565165605       -1.9684262531       -0.2886167576
 H          2.8789751208        0.7697761754        0.5460230264
  17
  -24.304511659999999       0.11498751215935446      !mtd4
 N         -1.9207192260        1.0738888920       -0.2455454872
 C         -2.0584532867       -0.3512073087        0.1798594117
 C         -0.9039538795       -1.2480039692       -0.2900221193
 C          0.4158309786       -1.0883662322        0.4887623693
 C          1.2241017335        0.1272632140        0.1116793870
 O          2.4279026222       -0.0922773837       -0.4377323308
 O          0.7836054414        1.2316162788        0.3013921779
 H         -2.0586250700        1.1875046832       -1.2596947658
 H         -0.9528468276        1.3654187554       -0.0252471973
 H         -2.5766914190        1.7021934359        0.2416203415
 H         -3.0201684149       -0.7295613936       -0.1942086187
 H         -2.1311341265       -0.3950441782        1.2745208349
 H         -0.7145975809       -1.0680450292       -1.3545320449
 H         -1.2252303436       -2.2968405636       -0.2281066196
 H          1.0615003028       -1.9604083672        0.3243067670
 H          0.2208643198       -1.0589691323        1.5656030629
 H          2.8692741756        0.7550482964       -0.6102594140
  17
  -24.304492010000001       0.11262120324842043      !mtd2
 N         -1.9207774660        1.0736542592       -0.2443980927
 C         -2.0592406063       -0.3523147851        0.1781214771
 C         -0.9032286046       -1.2480134941       -0.2900122330
 C          0.4151787577       -1.0868746580        0.4908426557
 C          1.2242320316        0.1275803559        0.1117880062
 O          2.4273905431       -0.0934874175       -0.4384106635
 O          0.7847617413        1.2325365369        0.3005204184
 H         -2.5760814340        1.7012357530        0.2442669103
 H         -2.0591551780        1.1894362121       -1.2583911142
 H         -0.9525554579        1.3643820678       -0.0243112200
 H         -3.0197366639       -0.7303669020       -0.1993170921
 H         -2.1350338375       -0.3981526264        1.2724676287
 H         -0.7123464234       -1.0679078819       -1.3542288258
 H         -1.2235693887       -2.2971625887       -0.2286041457
 H          1.0609416150       -1.9595288869        0.3300823146
 H          0.2182452837       -1.0544184926        1.5672383092
 H          2.8691785519        0.7533973544       -0.6120314759
  17
  -24.304477750000000       0.11093452312141076      !mtd2
 N         -1.9200731079        1.0738225170       -0.2459056703
 C         -2.0585717995       -0.3513975354        0.1790080494
 C         -0.9037230123       -1.2484635736       -0.2894478108
 C          0.4156707387       -1.0880352681        0.4897973143
 C          1.2239503976        0.1273217567        0.1119508419
 O          2.4268772872       -0.0922321221       -0.4393106162
 O          0.7842067918        1.2318503348        0.3025329726
 H         -0.9523415104        1.3650213578       -0.0252307279
 H         -2.5759327466        1.7023673061        0.2410855129
 H         -2.0576551795        1.1877082001       -1.2602179166
 H         -3.0198627225       -0.7295463623       -0.1962968703
 H         -2.1327087387       -0.3953206729        1.2735548230
 H         -0.7138815116       -1.0695506451       -1.3540422318
 H         -1.2249434284       -2.2972612445       -0.2265983286
 H          1.0614938778       -1.9601763700        0.3264784959
 H          0.2202205674       -1.0575995297        1.5665271492
 H          2.8680817788        0.7552452347       -0.6115739705
  17
  -24.304459040000001       0.10875974987698257      !mtd2
 N         -1.9160605405        1.0801110984        0.2449418146
 C         -2.0613696355       -0.3564350257       -0.1374315388
 C         -0.8984347608       -1.2401897156        0.3361614799
 C          0.4080517926       -1.0997411356       -0.4682868866
 C          1.2221114331        0.1244216285       -0.1337283743
 O          2.4321468711       -0.0818197557        0.4070704614
 O          0.7803351226        1.2238869834       -0.3476944320
 H         -2.5792894737        1.6947934851       -0.2493959202
 H         -0.9516256625        1.3647438270        0.0015173848
 H         -2.0379642688        1.2227750868        1.2576257091
 H         -2.1541893155       -0.4311505344       -1.2288737811
 H         -3.0159745001       -0.7237229818        0.2647684954
 H         -1.2196717659       -2.2904454602        0.3065236216
 H         -0.6915376666       -1.0327846969        1.3923924400
 H          0.1950481528       -1.0958321203       -1.5421135681
 H          1.0565896569       -1.9677287654       -0.2940205621
 H          2.8761630755        0.7694621341        0.5509993557
  17
  -24.304450660000001       0.10779956758748958      !mtd4
 N         -1.9159941073        1.0800858531        0.2447477556
 C         -2.0615113992       -0.3566282966       -0.1369087832
 C         -0.8982250938       -1.2401569711        0.3361875117
 C          0.4079626909       -1.0994525288       -0.4688310658
 C          1.2221977097        0.1244593985       -0.1338822107
 O          2.4318529375       -0.0819702894        0.4075927806
 O          0.7805479371        1.2239420527       -0.3479336833
 H         -2.0378774874        1.2231837606        1.2572226309
 H         -2.5792558613        1.6947443922       -0.2499002711
 H         -0.9515495168        1.3645090364        0.0011202319
 H         -2.1551312330       -0.4317632316       -1.2282520604
 H         -3.0158030663       -0.7238461613        0.2660912386
 H         -1.2191847045       -2.2904953412        0.3065603331
 H         -0.6910341129       -1.0328362964        1.3923635434
 H          0.1944050581       -1.0949210161       -1.5425351880
 H          1.0564162180       -1.9676374705       -0.2953372262
 H          2.8761518790        0.7690621198        0.5520716744
  17
  -24.304426350000000       0.10506181913975253      !mtd4
 N         -1.9152303235        1.0800393233        0.2456878452
 C         -2.0612464364       -0.3564415589       -0.1366123937
 C         -0.8980655371       -1.2405633181        0.3356665632
 C          0.4080136410       -1.0994344029       -0.4693356374
 C          1.2219551919        0.1246171863       -0.1341531063
 O          2.4308218376       -0.0818336282        0.4090680416
 O          0.7805767761        1.2238944941       -0.3496315424
 H         -0.9511581427        1.3644995275        0.0012905265
 H         -2.0360681553        1.2225838436        1.2585137704
 H         -2.5789599245        1.6950116475       -0.2479136746
 H         -2.1552542265       -0.4310277270       -1.2279773741
 H         -3.0154850979       -0.7235645878        0.2665897407
 H         -1.2192853065       -2.2907948508        0.3052560972
 H         -0.6906629573       -1.0339638297        1.3919482659
 H          0.1943926725       -1.0945500247       -1.5430438192
 H          1.0566969585       -1.9675096367       -0.2961503782
 H          2.8754409459        0.7690683500        0.5532780986
  17
  -24.304332460000001        9.5125304474168060E-002 !mtd4
 N         -1.9126251844        1.0797718000        0.2495736081
 C         -2.0603254148       -0.3556765758       -0.1358371504
 C         -0.8977877659       -1.2420515880        0.3337265873
 C          0.4080985434       -1.0998221449       -0.4712497364
 C          1.2210500106        0.1246474503       -0.1354356171
 O          2.4270709618       -0.0804943446        0.4145814538
 O          0.7813894586        1.2236685739       -0.3558883707
 H         -0.9494343397        1.3647346150        0.0023609005
 H         -2.0299620735        1.2197939587        1.2631678739
 H         -2.5779697462        1.6960891515       -0.2401734225
 H         -2.1550055987       -0.4275960865       -1.2273143554
 H         -3.0147173924       -0.7227341326        0.2670619725
 H         -1.2198982237       -2.2919297009        0.3006165199
 H         -0.6898909809       -1.0385509800        1.3905097377
 H          0.1944983750       -1.0945360323       -1.5449594867
 H          1.0573257299       -1.9675798689       -0.2984655935
 H          2.8706377930        0.7709853296        0.5587614687
  17
  -24.299921260000001        8.9340607716562861E-004 !mtd2
 N         -1.8248240582        1.1109420346        0.0915881303
 C         -2.0749554819       -0.3625222801        0.1131506199
 C         -0.9192664634       -1.2157308691       -0.4237514118
 C          0.3949690366       -1.1235888765        0.3681879107
 C          1.1993434952        0.1063345988        0.0366680916
 O          2.5314372739       -0.0351677471       -0.0254761050
 O          0.6400401399        1.1558638871       -0.1479392864
 H         -2.6699750017        1.6639543016        0.3025246443
 H         -1.4569804070        1.4084566467       -0.8276543076
 H         -1.0907925502        1.3752064299        0.7716090037
 H         -2.9826484735       -0.5635899017       -0.4731448280
 H         -2.3171158851       -0.6653935969        1.1399541355
 H         -0.7166864428       -0.9336000363       -1.4640532164
 H         -1.2431622500       -2.2646963643       -0.4656744753
 H          1.0341756574       -1.9914966650        0.1625568433
 H          0.1968219046       -1.1456428138        1.4443009372
 H          2.9442892021        0.8185006660       -0.2336418580
  17
  -24.299911810000001        8.8451659013160495E-004 !mtd6
 N         -1.8250517970        1.1108359356       -0.0856162689
 C         -2.0753286452       -0.3625609310       -0.1097212081
 C         -0.9181833555       -1.2171779530        0.4217470435
 C          0.3941692313       -1.1221297121       -0.3729427281
 C          1.1992952262        0.1065873359       -0.0389214204
 O          2.5309263946       -0.0362731101        0.0278070143
 O          0.6410003781        1.1569439863        0.1438267845
 H         -1.4541942357        1.4063399457        0.8328733964
 H         -2.6709835483        1.6644684966       -0.2924846180
 H         -1.0932490914        1.3764910699       -0.7674964287
 H         -2.3206790690       -0.6631082267       -1.1364510147
 H         -2.9812386097       -0.5648368890        0.4789249444
 H         -1.2417654872       -2.2663355808        0.4610091409
 H         -0.7132143607       -0.9383961528        1.4624857252
 H          0.1934308017       -1.1402506917       -1.4486676535
 H          1.0338930617       -1.9907581193       -0.1720568169
 H          2.9436041112        0.8172651048        0.2369100274
  17
  -24.299909939999999        8.8276801778942719E-004 !mtd1
 N         -1.8252313613        1.1108053133       -0.0851862461
 C         -2.0753409271       -0.3626048861       -0.1095128642
 C         -0.9179948314       -1.2171537954        0.4216247064
 C          0.3941544548       -1.1219003048       -0.3733887128
 C          1.1993717200        0.1067027367       -0.0391352477
 O          2.5309587417       -0.0366899130        0.0288142561
 O          0.6409270738        1.1571538562        0.1427889646
 H         -2.6711931322        1.6642160706       -0.2917834123
 H         -1.0936230650        1.3766743397       -0.7672051565
 H         -1.4540876873        1.4062942713        0.8333658643
 H         -2.3207934537       -0.6629570193       -1.1362786777
 H         -2.9811480243       -0.5651307109        0.4792072033
 H         -1.2414457772       -2.2663619932        0.4608813248
 H         -0.7128431411       -0.9384632122        1.4623505752
 H          0.1931142152       -1.1395955670       -1.4490584059
 H          1.0339084771       -1.9906152636       -0.1729864334
 H          2.9440249761        0.8166553472        0.2379011807
  17
  -24.299900650000001        8.7413236844816620E-004 !mtd4
 N         -1.8249950104        1.1106073910       -0.0859767501
 C         -2.0755184838       -0.3627257933       -0.1087176615
 C         -0.9178001906       -1.2171563045        0.4217443300
 C          0.3939246829       -1.1215816983       -0.3739270930
 C          1.1992950797        0.1067675329       -0.0391679146
 O          2.5308247815       -0.0368564556        0.0289721090
 O          0.6411039368        1.1572983476        0.1431181714
 H         -1.0937191089        1.3755343577       -0.7684443704
 H         -1.4534843405        1.4068753429        0.8321967822
 H         -2.6709695928        1.6642100390       -0.2927596300
 H         -2.3223763678       -0.6638611774       -1.1349178311
 H         -2.9806876949       -0.5645489820        0.4812069310
 H         -1.2410860592       -2.2664090682        0.4611709054
 H         -0.7121476741       -0.9384940976        1.4623879205
 H          0.1923270147       -1.1385929166       -1.4494954036
 H          1.0337331621       -1.9904247543       -0.1742832187
 H          2.9438063415        0.8164298459        0.2384891949
  17
  -24.299847719999999        8.2651789001601415E-004 !mtd1
 N         -1.9482637322        0.9486341042        0.2191639498
 C         -1.7477635601       -0.2825695158       -0.6014482618
 C         -0.8702693151       -1.3526565146        0.0682180817
 C          0.3467054250       -0.8264052732        0.8444563466
 C          1.1666667584        0.1725381497        0.0728663922
 O          2.2241943465       -0.2856348628       -0.6107828000
 O          0.8293715000        1.3299084486        0.0838763564
 H         -2.5599761679        1.6340298885       -0.2480716094
 H         -1.0174067295        1.3836949175        0.3391669112
 H         -2.3473686615        0.7393174881        1.1452099044
 H         -1.2880483821        0.0232776604       -1.5522941413
 H         -2.7268054499       -0.7019562768       -0.8718619801
 H         -0.5224164377       -2.0586731828       -0.6978877731
 H         -1.4888142721       -1.9539057774        0.7470847526
 H          1.0039085337       -1.6528688145        1.1414607277
 H          0.0274626354       -0.3478454725        1.7762785471
 H          2.6861121988        0.4538439027       -1.0378535341
  17
  -24.299821399999999        8.0381558767896218E-004 !mtd4
 N         -1.9545164095        0.9146568944       -0.2905003461
 C         -1.7300104441       -0.1973128826        0.6803993910
 C         -0.8692810485       -1.3485120764        0.1350425832
 C          0.3257331449       -0.9322468588       -0.7363168862
 C          1.1636699587        0.1593943853       -0.1267053957
 O          2.2380540377       -0.2055445730        0.5862407525
 O          0.8255977633        1.3057433613       -0.2848107571
 H         -1.0278422779        1.3274128775       -0.4924826036
 H         -2.5536485385        1.6578310745        0.0984811373
 H         -2.3788121224        0.5853883853       -1.1692582995
 H         -2.7007629288       -0.5750684489        1.0303461204
 H         -1.2452393537        0.2308310337        1.5695964878
 H         -1.5049924785       -2.0329456951       -0.4414734627
 H         -0.5000362894       -1.9476794193        0.9782759409
 H         -0.0189459447       -0.5817136417       -1.7148818010
 H          0.9765616231       -1.7918710067       -0.9378812047
 H          2.7094518242        0.5837027516        0.8984454637
  17
  -24.299820409999999        8.0297394104239788E-004 !mtd1
 N         -1.9475681673        0.9487549214        0.2180676589
 C         -1.7484233492       -0.2836045811       -0.6011800800
 C         -0.8700749949       -1.3529645763        0.0686713996
 C          0.3465732251       -0.8259112787        0.8449262112
 C          1.1665713661        0.1728277177        0.0731459225
 O          2.2228082045       -0.2859181194       -0.6121496680
 O          0.8306785962        1.3306046941        0.0852219391
 H         -2.3466195696        0.7411932900        1.1443655231
 H         -2.5585203693        1.6344152039       -0.2500914432
 H         -1.0160548827        1.3827524108        0.3370613461
 H         -1.2900457274        0.0208521056       -1.5531171492
 H         -2.7279532913       -0.7031412601       -0.8695821968
 H         -0.5217876156       -2.0589722622       -0.6972441149
 H         -1.4882291804       -1.9544586715        0.7476891320
 H          1.0039346950       -1.6519922572        1.1426476951
 H          0.0268409136       -0.3469632216        1.7763837083
 H          2.6849299712        0.4536624740       -1.0388361933
  17
  -24.299818850000001        8.0164949803349474E-004 !mtd2
 N         -1.9543564098        0.9149273190       -0.2900426914
 C         -1.7300670331       -0.1974391960        0.6804074341
 C         -0.8695733727       -1.3486256135        0.1346590918
 C          0.3258077991       -0.9324872329       -0.7363231941
 C          1.1637015557        0.1591978574       -0.1267435528
 O          2.2380609302       -0.2050502630        0.5865701625
 O          0.8256398513        1.3055091056       -0.2852040515
 H         -2.5533351548        1.6579308183        0.0991058381
 H         -2.3787739770        0.5862702609       -1.1689708899
 H         -1.0274815890        1.3275215805       -0.4921882758
 H         -2.7008884871       -0.5751677581        1.0301991464
 H         -1.2452502605        0.2302767430        1.5697844905
 H         -1.5054198026       -2.0325748279       -0.4422912340
 H         -0.5008047744       -1.9483790170        0.9776860416
 H         -0.0184697897       -0.5821304976       -1.7150960579
 H          0.9766471908       -1.7922086944       -0.9374449617
 H          2.7094009089        0.5845278967        0.8980418415
  17
  -24.299813400000001        7.9703956150503684E-004 !mtd4
 N         -1.9542546666        0.9149167866       -0.2896136040
 C         -1.7297113020       -0.1975957839        0.6806439669
 C         -0.8693452953       -1.3486788355        0.1344985106
 C          0.3258379916       -0.9322626421       -0.7366231302
 C          1.1636580504        0.1594420109       -0.1268750936
 O          2.2372049849       -0.2054098266        0.5873115918
 O          0.8259044081        1.3057064006       -0.2861616307
 H         -2.3790237349        0.5863789380       -1.1682417859
 H         -1.0273827772        1.3273874713       -0.4920514094
 H         -2.5531060966        1.6580455284        0.0998891091
 H         -2.7004673155       -0.5753756386        1.0305875978
 H         -1.2446904279        0.2300335813        1.5699675157
 H         -1.5053026084       -2.0324953537       -0.4424876356
 H         -0.5003362083       -1.9485707406        0.9773200127
 H         -0.0186980746       -0.5816637457       -1.7152262860
 H          0.9767475858       -1.7918355965       -0.9381467229
 H          2.7090591889        0.5837985974        0.8989204593
  17
  -24.297002880000001        4.0724364499718005E-005 !mtd4
 N         -2.0103077245        1.1483768446        0.0147179353
 C         -1.9666831616       -0.2929277265       -0.3846357860
 C         -0.9786428921       -1.1266745326        0.4527229305
 C          0.4590100968       -1.2047441491       -0.0985420362
 C          1.2480119718        0.0825658669        0.0048264637
 O          2.5647693644        0.0528236721       -0.2897179647
 O          0.6683808232        1.0874524963        0.3345976195
 H         -2.4720519942        1.2812745817        0.9255954091
 H         -2.4871178051        1.7431160469       -0.6791448519
 H         -1.0329846898        1.4655923728        0.1132665815
 H         -1.7027852003       -0.3688441589       -1.4476217551
 H         -2.9857690681       -0.6978740066       -0.3062085433
 H         -1.3706944957       -2.1471950927        0.5616707513
 H         -0.9439380314       -0.7193231362        1.4703488326
 H          0.4335667423       -1.5210022608       -1.1459706822
 H          1.0133166753       -1.9831433643        0.4381555845
 H          2.9192121666       -0.8221995488       -0.5416343420
  17
  -24.296809759999999        3.3197280565975930E-005 !mtd4
 N         -2.0030465752        1.1500082164        0.0018512922
 C         -1.9569005231       -0.2919661159       -0.3950422383
 C         -0.9818434039       -1.1257324800        0.4573168722
 C          0.4612698788       -1.2103559814       -0.0775872955
 C          1.2447068340        0.0813340674        0.0108818202
 O          2.5508015698        0.0632595816       -0.3284448848
 O          0.6701149391        1.0785481752        0.3716411332
 H         -2.4665195212        1.7452233771       -0.7003971026
 H         -1.0267895408        1.4650016526        0.1170138219
 H         -2.4800480770        1.2850442754        0.9046320991
 H         -1.6783996293       -0.3698975637       -1.4541752254
 H         -2.9776866634       -0.6950056845       -0.3301843009
 H         -1.3782951006       -2.1444400780        0.5672111761
 H         -0.9568296658       -0.7128898341        1.4730746158
 H          0.4470752942       -1.5456011291       -1.1192660322
 H          1.0125808888       -1.9769572718        0.4788463427
 H          2.9029752008       -0.8081908760       -0.5953779912
  17
  -24.296605929999998        2.6756464491084494E-005 !mtd4
 N         -1.9970014896        1.1511139769       -0.0082690961
 C         -1.9493777104       -0.2916354278       -0.4028825224
 C         -0.9843575721       -1.1252567726        0.4609351850
 C          0.4629346820       -1.2144384200       -0.0611377384
 C          1.2421128452        0.0805018238        0.0157106960
 O          2.5385427573        0.0715898428       -0.3589140362
 O          0.6727754183        1.0717761714        0.4006122840
 H         -2.4858702686        1.2882939015        0.8877123543
 H         -2.4496011020        1.7468132878       -0.7173684846
 H         -1.0217433675        1.4642047186        0.1201850046
 H         -1.6598275839       -0.3716359767       -1.4588549487
 H         -2.9714232597       -0.6929913344       -0.3481836550
 H         -1.3839677988       -2.1426452859        0.5712585418
 H         -0.9670675047       -0.7083887913        1.4752335922
 H          0.4574073066       -1.5641944885       -1.0981355229
 H          1.0118021103       -1.9717243735        0.5103887173
 H          2.8880961844       -0.7965893548       -0.6396961835
  17
  -24.296595150000002        2.6452978667091215E-005 !mtd4
 N         -1.9975328331        1.1510616161       -0.0078179577
 C         -1.9498628913       -0.2917008473       -0.4023856215
 C         -0.9841562408       -1.1251869272        0.4607915044
 C          0.4629157462       -1.2140548478       -0.0619956077
 C          1.2424591751        0.0807116601        0.0155046237
 O          2.5393570897        0.0708475605       -0.3572982829
 O          0.6725319837        1.0721286021        0.3990827708
 H         -1.0224310735        1.4643952969        0.1198865939
 H         -2.4858826681        1.2882196029        0.8886205571
 H         -2.4506080428        1.7466253180       -0.7167261684
 H         -1.6610655986       -0.3717416394       -1.4585598620
 H         -2.9718110658       -0.6932031567       -0.3469237550
 H         -1.3834944078       -2.1426852534        0.5711043810
 H         -0.9664610819       -0.7085064446        1.4751585036
 H          0.4569142529       -1.5630356220       -1.0992489989
 H          1.0119286443       -1.9718361883        0.5087331895
 H          2.8885184508       -0.7972977593       -0.6386738668
  17
  -24.296514940000002        2.4300354986580164E-005 !mtd2
 N         -1.9941299249        1.1515452760       -0.0128373410
 C         -1.9467899907       -0.2918236558       -0.4054226544
 C         -0.9852347613       -1.1250611238        0.4625645407
 C          0.4634101534       -1.2157740204       -0.0552381699
 C          1.2410789931        0.0802939538        0.0175759615
 O          2.5334413293        0.0749222305       -0.3707759845
 O          0.6740050637        1.0690086582        0.4123605419
 H         -2.4417049161        1.7470961631       -0.7250288439
 H         -1.0191406451        1.4632545258        0.1210312066
 H         -2.4879322790        1.2906500532        0.8803119358
 H         -1.6539433380       -0.3735945309       -1.4603438637
 H         -2.9693807549       -0.6921399198       -0.3534463470
 H         -1.3858460029       -2.1420039451        0.5733005554
 H         -0.9705757063       -0.7065034282        1.4762260583
 H          0.4607301236       -1.5704251489       -1.0905739937
 H          1.0115112961       -1.9698113202        0.5213138609
 H          2.8819117081       -0.7920358044       -0.6566407456
  17
  -24.296485300000001        2.3550005726793490E-005 !mtd3
 N         -1.9925187864        1.1517792390       -0.0145630378
 C         -1.9453311023       -0.2917220977       -0.4067521854
 C         -0.9857533523       -1.1252651105        0.4630259076
 C          0.4637332053       -1.2165634025       -0.0522321947
 C          1.2404043034        0.0801840503        0.0184104456
 O          2.5308734515        0.0765450023       -0.3761050663
 O          0.6744134924        1.0678732359        0.4173353964
 H         -2.4877158318        1.2911066161        0.8776093459
 H         -2.4387484456        1.7476005333       -0.7275970546
 H         -1.0177137128        1.4632307191        0.1212178683
 H         -1.6508873226       -0.3740327713       -1.4611843753
 H         -2.9682679882       -0.6913763759       -0.3563166350
 H         -1.3868729336       -2.1420692058        0.5731718607
 H         -0.9727274156       -0.7065102485        1.4766316544
 H          0.4628600435       -1.5739399579       -1.0866321542
 H          1.0113913226       -1.9686960106        0.5272362960
 H          2.8791860257       -0.7898769152       -0.6638025376
  17
  -24.296422410000002        2.2033768096472629E-005 !mtd1
 N         -1.9914085803        1.1519939528       -0.0164575503
 C         -1.9436841807       -0.2915669451       -0.4085215537
 C         -0.9862025431       -1.1250594346        0.4636896582
 C          0.4641708128       -1.2174004500       -0.0487140010
 C          1.2399358707        0.0800429177        0.0193494766
 O          2.5282136609        0.0782434415       -0.3823980547
 O          0.6749413928        1.0663260020        0.4231831318
 H         -2.4348049719        1.7478709277       -0.7309888222
 H         -1.0167895108        1.4627865421        0.1222826845
 H         -2.4895258492        1.2917753530        0.8741924957
 H         -1.6466834352       -0.3739521552       -1.4622335177
 H         -2.9667770265       -0.6911023096       -0.3604672018
 H         -1.3880774711       -2.1415234270        0.5741649666
 H         -0.9747571917       -0.7052922421        1.4769078261
 H          0.4652265813       -1.5779980154       -1.0819976590
 H          1.0112392004       -1.9674322404        0.5340429112
 H          2.8759607475       -0.7877232516       -0.6721142124
