  17
        -24.30454143
 N         -1.9180464039        1.0805339550        0.2437900841
 C         -2.0611762263       -0.3557212766       -0.1404064912
 C         -0.8995630173       -1.2391841890        0.3371382726
 C          0.4086889565       -1.1010784233       -0.4649197467
 C          1.2225737302        0.1238168070       -0.1325896020
 O          2.4357113406       -0.0813115772        0.4016180259
 O          0.7786024257        1.2230728738       -0.3427849692
 H         -0.9532540009        1.3656457841        0.0031900623
 H         -2.0429082116        1.2221002388        1.2562660903
 H         -2.5802895569        1.6953738558       -0.2519838896
 H         -2.1496518986       -0.4295948781       -1.2322700187
 H         -3.0171825200       -0.7237828184        0.2577446903
 H         -1.2212792152       -2.2893253593        0.3087793854
 H         -0.6947930176       -1.0299355298        1.3934057791
 H          0.1979641661       -1.1005349117       -1.5392005345
 H          1.0566090719       -1.9687203815       -0.2866738242
 H          2.8788915597        0.7705193954        0.5449055517
