17
 energy: -24.275155929840 gnorm: 0.000808325986 xtb: 6.5.1 (fef0646)
N            0.97332345235083        0.06567561563462       -0.07890469226291
C            2.46882687771324        0.02769920309064       -0.05778934211683
C            3.01517429198958        1.24701936310870       -0.78391475873152
C            4.54299105039334        1.28485883555480       -0.80712590600878
C            4.98415542623793        2.54935032442895       -1.56023143532034
O            6.29482480155149        2.72688173066635       -1.66982751130808
O            4.19306533524736        3.31666756791715       -2.01990577946679
H            0.56321961040894       -0.74429831855263        0.40320884031049
H            0.64054270505286        0.07751562026033       -1.05309292846447
H            0.64192047497475        0.92759568826762        0.37627899991803
H            2.79885350523781       -0.89262292077168       -0.54248908418129
H            2.80032682737143        0.01444782326125        0.98181593583616
H            2.66631294572268        2.16398282863516       -0.30507173694625
H            2.66545397463682        1.26355910534719       -1.81796978128352
H            4.94772472618585        0.40798932407976       -1.31703857348599
H            4.94823258768052        1.31640518338518        0.20646168358498
H            6.84063140724455        2.04209302568661       -1.26089393007289
