  21
        -46.92743908
 N         -4.5361953058       -0.0050195985        0.4841723491
 C         -3.0471949011        0.0045069476        0.6852270164
 C         -2.2428794368       -0.0244944924       -0.6208354966
 C         -0.7662968754       -0.0127100439       -0.3804395718
 C         -0.0863608238        1.1927982137       -0.2415758252
 F         -0.7553856309        2.3428337607       -0.3095912812
 C          1.2851289842        1.2072636211        0.0002993772
 F          1.9259175360        2.3660644531        0.1260413798
 C          1.9815798551        0.0117916926        0.1185777696
 F          3.2936864775        0.0235387997        0.3459107853
 C          1.3057657816       -1.1959097654        0.0045222072
 F          1.9662460653       -2.3430118728        0.1356392455
 C         -0.0656852285       -1.2060362636       -0.2380563053
 F         -0.7138766776       -2.3680018520       -0.3055396615
 H         -4.8319625933        0.8147727487       -0.0524458079
 H         -5.0247803603        0.0097501644        1.3840324041
 H         -4.8256232968       -0.8466343424       -0.0212788048
 H         -2.7651280751       -0.8597264437        1.3060032759
 H         -2.7709466964        0.8996085000        1.2634835375
 H         -2.5042189596        0.8390420378       -1.2486284383
 H         -2.4976864845       -0.9192875364       -1.2060771338
