  19
        -27.49043380
 N         -1.1231994279       -1.9806691394       -0.5454512086
 C         -0.0180156566       -1.8967157781        0.4518900031
 C          0.8704985126       -0.7123564468        0.2287872077
 C          2.2421002685       -0.8697051408        0.0766530243
 C          3.0586095275        0.2248184089       -0.1243866241
 C          2.5149751694        1.4935953372       -0.1761033567
 C          1.1533892453        1.6641546237       -0.0272908522
 C          0.3376683316        0.5688079197        0.1738901455
 Cl        -3.1654077270        0.8132298783        0.0326548991
 H         -0.7491119785       -1.9781335214       -1.5066616082
 H         -1.7601935778       -1.1667907389       -0.4591764653
 H         -1.6915927541       -2.8348018276       -0.4289205309
 H          0.5785358769       -2.8149202347        0.4157319752
 H         -0.4324697292       -1.8516683977        1.4661713499
 H          2.6672815027       -1.8599449771        0.1177170787
 H          4.1228436059        0.0892686940       -0.2407806156
 H          3.1528205466        2.3488726818       -0.3333689933
 H          0.7251977279        2.6544345208       -0.0703519251
 H         -0.7267537112        0.7015237516        0.2799858972
