27
 energy: -35.933215979759 gnorm: 0.000380823891 xtb: 6.5.1 (fef0646)
N            3.48173064240922        0.23026432350886       -1.13240577004386
C            2.55664693947947        0.02644287921965        0.02440564899788
C            2.86987406748713        1.02557653245124        1.13851670007232
C            2.07894228917248        0.66834585507668        2.40073504815390
C            2.44724482043764        1.61852658804353        3.53741339838140
C            2.17352946536005        3.07974381730970        3.15452407562263
C            2.74001788139551        3.95423753942295        4.27888068921441
O            1.88803943169562        4.29272057240183        5.24818154212706
O            3.88908274098925        4.28077969115583        4.31268099219781
C            2.88862962632485        3.43087309027710        1.84937460231918
C            2.52995007426477        2.46020851228522        0.72689518152784
H            3.22926019646250       -0.35946615839888       -1.93426532164733
H            4.44742160913516        0.01623192857948       -0.85179041423637
H            3.43869189104074        1.22275635694946       -1.40904585757361
H            2.67003506876838       -0.99711381878544        0.38424893557383
H            1.53220054667322        0.16233777489006       -0.32533230608616
H            3.93628350360670        0.96591199710096        1.38236180802442
H            2.29834008743336       -0.35584234887351        2.70474679141167
H            1.00978178775741        0.73758788174140        2.19293459421191
H            3.50814577526037        1.51371006955011        3.77272851389827
H            1.88142104023999        1.35123842295792        4.43083175873070
H            1.09524541578110        3.23896730271042        3.04525950296162
H            0.98256092267029        3.98453963893899        5.11191251536556
H            3.96376988051794        3.41165834647937        2.03530476778108
H            2.62607631920073        4.44686322664100        1.55294135263032
H            3.07718473706916        2.76599346882451       -0.17076008376641
H            1.46144323936675        2.53221650954172        0.51217133415002
