  22
        -30.74239825
 N          1.1159534278       -1.5686945426        1.1165109610
 C          0.0485750291       -1.7557058879        0.0813970550
 C          0.6589737324       -2.0148580939       -1.2907561449
 C         -0.8991377778       -0.5796852256        0.0520401822
 C         -0.4210624235        0.7148711366       -0.0776893918
 C         -1.2893497925        1.7874599375       -0.1195838948
 C         -2.6507397476        1.5780547414       -0.0345711184
 C         -3.1409487030        0.2940102616        0.0908980995
 C         -2.2707468483       -0.7772787687        0.1323371266
 Cl         3.0596744777        1.1301546803       -0.0313922257
 H          1.7269841526       -0.7783898315        0.8529023096
 H          1.7087735428       -2.4052949041        1.2032155349
 H          0.7084980426       -1.3591834100        2.0374875928
 H         -0.5385262494       -2.6415407267        0.3733311856
 H          1.3145407616       -2.8858854640       -1.2787437391
 H          1.2538042691       -1.1605181585       -1.6124441861
 H         -0.1118521905       -2.1806677289       -2.0443117586
 H          0.6410036757        0.8810704448       -0.1440889547
 H         -0.9029992090        2.7892240765       -0.2189319173
 H         -3.3295184277        2.4152687083       -0.0669324974
 H         -4.2042150334        0.1269470690        0.1551780348
 H         -2.6544454720       -1.7793739494        0.2257044523
