22
 energy: -30.745580189765 gnorm: 0.000561647233 xtb: 6.5.1 (fef0646)
N            2.69122087527558       -1.21962119695508       -0.00119572816495
C            1.88426056621161        0.02140737366969       -0.13964170912527
C            0.49408044081920       -0.33112351132360       -0.65728729944625
C            2.60435575331376        0.98598276377580       -1.05073288816831
C            3.02309368095577        2.21888231975590       -0.57155506569224
C            3.68782425270278        3.10663823671724       -1.39917908432336
C            3.94183225378550        2.76956167951254       -2.71760175079378
C            3.52637164526797        1.54184800769336       -3.20418568405664
C            2.86226516528213        0.65564252809787       -2.37575583046488
Cl           5.36481297333035       -0.56402146001636        1.28879834953332
H            3.62516838216668       -1.00187868308959        0.43666510326161
H            2.87160346486367       -1.63856549152741       -0.91719119044729
H            2.21732375200843       -1.89977645687058        0.59854390788931
H            1.80960653524308        0.47211150230463        0.85285577999483
H            0.55065645168533       -0.82184863383524       -1.62398927224789
H           -0.09210062354478        0.57501734758854       -0.77432164916349
H           -0.02145027442012       -0.98094573424626        0.04376898639705
H            2.83905377247871        2.48487129266754        0.45892583467437
H            4.01455565832838        4.06099909883009       -1.01257605316343
H            4.46509123580890        3.46073323162109       -3.36156963512912
H            3.72548802964889        1.27493661401585       -4.23131604226170
H            2.54375600894189       -0.29293082832960       -2.78031907918465
