34
 energy: -51.381239419569 gnorm: 0.000774711365 xtb: 6.5.1 (fef0646)
N            2.53686614526827       -0.41658366239371       -0.71382772629059
C            2.35980946051243        0.11337641766840        0.63166083881333
C            3.03163840237895       -0.73584714912390        1.72793888648020
C            4.51593209595495       -0.78550276062813        1.51349463655850
C            5.32602740029522        0.25750724584571        1.95792206643336
C            6.67972225277627        0.25620179807087        1.70890065197072
C            5.09919439933242       -1.83881597630195        0.81457396076184
C            6.45562917114482       -1.85923111870127        0.56789231856738
C            7.26279505281537       -0.80326150173705        1.00041533531156
N            8.61394163918458       -0.91360520966734        0.75231928371240
N            9.30029642302040        0.15116589428736        0.84120441213061
C           10.66428613562248        0.02352101990639        0.65862363685641
C           11.33149154183965       -1.19886657561410        0.50512980866500
C           12.69993609347926       -1.21850926240725        0.34400616339101
C           13.41991764445696       -0.03138524012366        0.33381200706374
C           12.76642588716506        1.18226265087213        0.48653792171376
C           11.39648855158768        1.21477432760977        0.65011215036325
Cl           1.17792089128236        1.26941567051119       -2.70529425138605
H            1.80753121957485        0.49502673076157       -1.77954787056683
H            2.14458864677855       -1.34969995865228       -0.78659478003740
H            3.52327131049811       -0.46437822155478       -0.94983440323506
H            1.28725492261036        0.17961733257507        0.82499459495766
H            2.77561813935025        1.12288238096037        0.64528292738489
H            2.61290422813222       -1.74486167597054        1.70619219643750
H            2.80514819695151       -0.29059453380973        2.69757405384026
H            4.88084967279325        1.07512710341362        2.50746551986147
H            7.31675695723103        1.05455735747623        2.05779122114639
H            4.48327353359460       -2.66054700615254        0.47412085931230
H            6.91086675566986       -2.67325069800781        0.02521130585151
H           10.75108369329810       -2.10895236107171        0.51854900915661
H           13.21542463325764       -2.16061160777930        0.22525656594249
H           14.49233431110957       -0.05396436580649        0.20771181803100
H           13.33095975625427        2.10302043496596        0.47856591584647
H           10.86727483477666        2.14771252058397        0.76881896495438
