14
 energy: -20.077395333280 gnorm: 0.000500520366 xtb: 6.5.1 (fef0646)
N            1.10485139856706        0.20834380173430        0.54038666701573
C            2.55425945127166        0.15087868507126        0.26603026491923
C            2.81885914469176        0.69603865785409       -1.13607355563449
C            2.56332972913681        2.12136847016157       -1.20806131153053
C            2.34773765732952        3.29862948689709       -1.23111638041100
Cl          -0.27366552925688       -1.52170704277393       -1.57105194193725
H            0.87686269560695       -0.13245520541247        1.47611156807813
H            0.59524980988725       -0.39002102494694       -0.15987859913780
H            0.76328369548958        1.16645290901885        0.42284378388226
H            2.87818137912000       -0.88773662351658        0.31371057828018
H            3.09225533238638        0.74141579662265        1.00896238294404
H            2.16750230016970        0.17678661761210       -1.84420292781658
H            3.85492570189228        0.50895128346420       -1.42092003136996
H            2.16405723370818        4.33037418821433       -1.27489049728176
