  25
        -27.77225448
 N         -2.7098502474       -0.7973327801       -0.8212573518
 C         -2.5492398747        0.5202745989       -0.1421726200
 C         -1.5106454224        0.4901677713        0.9795634324
 C         -0.1134578998        0.2142118566        0.4995559620
 C          0.3649838541       -1.0270552181        0.5131962601
 C          1.7390607518       -1.4153550834        0.0643742594
 C          2.6861092556       -0.2133010879       -0.0840803155
 C          1.9761616896        0.9705442935       -0.7535653437
 C          0.7120759788        1.3790119539        0.0223257138
 H         -3.0087197480       -1.5241734616       -0.1546437227
 H         -1.8253577580       -1.1090733990       -1.2482500950
 H         -3.4209088246       -0.7569096512       -1.5734712152
 H         -3.5231082109        0.8370078395        0.2517726258
 H         -2.2709431554        1.2765506828       -0.8848109126
 H         -1.7947874824       -0.2654979695        1.7187414317
 H         -1.5150845958        1.4406129467        1.5242912559
 H         -0.2721739241       -1.8108105878        0.8903652585
 H          1.6648648447       -1.9390998618       -0.8964831418
 H          2.1627925401       -2.1455111913        0.7658400542
 H          3.5840737205       -0.4945069597       -0.6496664216
 H          3.0470754507        0.0920791094        0.9048489705
 H          1.7027912079        0.6959140377       -1.7790366320
 H          2.6609245800        1.8228789951       -0.8524352613
 H          0.0849420894        2.0327365288       -0.5948145938
 H          0.9963883226        1.9826462237        0.8917180672
