45
 energy: -68.605258472872 gnorm: 0.000423461070 xtb: 6.5.1 (fef0646)
N            3.31310558829406       -0.96305901317117        0.91975351469785
C            2.67188979972868        0.21627844997211        0.29881967587114
C            3.58129352634712        1.44358643651560        0.40097998279119
C            4.77118333518488        1.35291646464736       -0.49427006580406
C            5.04504246977296        2.07685259339219       -1.61473551551793
C            6.26112580402307        1.72493760968377       -2.23068942545276
C            6.93436190630877        0.72031510566929       -1.58530017358552
C            8.17222174777788        0.10356357570724       -1.92040655853011
C            8.82889243222822       -0.90536672964186       -1.26134411706054
C           10.03826616342810       -1.29456609254346       -1.86099331791211
C           10.90790642132522       -2.37142208952318       -1.31085459058552
C           10.31483313005435       -0.56889380901506       -3.00490157850619
C           11.41257624287378       -0.65109517948850       -3.90490216936158
C           11.62676530596767        0.12097377063964       -5.02539220919174
C           12.79220720291513       -0.20509024918768       -5.72443794439759
C           13.50234321022531       -1.23764209463416       -5.15646073282272
C           14.71572317792489       -1.86904223018757       -5.56961403852623
C           15.64211435256309       -1.49583459829244       -6.52059009276433
C           15.58521436940458       -0.26337753812089       -7.36070613900521
C           16.70578422627717       -2.42417831616806       -6.61420612239801
C           16.59720776298582       -3.47212064142302       -5.75939150584537
S           15.18100274545366       -3.36690081013035       -4.79674154221402
S           12.70122894023109       -1.81020825629014       -3.72046489494725
S            9.06425688044854        0.60624810949824       -3.33298168887127
S            6.05645745782421        0.21192967513662       -0.18333567345798
H            2.73055431432469       -1.79951527845792        0.80884008784222
H            3.47467373778796       -0.79674325974931        1.91929118586482
H            4.23042406072723       -1.12987903089067        0.48008350251893
H            1.73332826584383        0.42671523501308        0.80955092676505
H            2.46370273773407        0.00389712021557       -0.74921502530799
H            3.90997398903873        1.57352752679985        1.43268602337203
H            3.01258446176299        2.32770901682285        0.11586463978200
H            4.40073202192992        2.84773253114530       -1.99715046328313
H            6.64740443682269        2.18626328702078       -3.12276032127860
H            8.45206674603017       -1.35933935990781       -0.36131993401883
H           10.48633483649641       -2.75816574359693       -0.38806969189791
H           11.90989935369242       -1.99269932562071       -1.11139676250218
H           11.00630344072159       -3.18791223354592       -2.02578442517778
H           10.95106999634278        0.90093574040094       -5.33231267349812
H           13.08474374649187        0.29290972448157       -6.62811902986105
H           15.39279371879599        0.61405862193964       -6.74588441593549
H           14.79527949941493       -0.34299906305763       -8.10714544433484
H           16.53112198259605       -0.12878306239440       -7.87814830463209
H           17.52527090488959       -2.30544053797226       -7.30039167115528
H           17.25902354899281       -4.30409605168583       -5.62939127985889
