  13
        -17.89047731
 N          0.7927286039        1.4466164297        0.0000763999
 C          1.8399850785        0.3949903253       -0.0035306824
 C          1.5841751182       -0.8904555222       -0.7546100810
 C          1.5927870507       -0.8865484336        0.7564849381
 Cl        -2.3131657493       -0.1378571487        0.0005330673
 H          0.8666074759        2.0447114530        0.8375330405
 H         -0.1503716341        1.0166665665        0.0013588953
 H          0.8631509064        2.0477091506       -0.8367438818
 H          2.8623325611        0.7909697636       -0.0099463413
 H          2.4149907597       -1.3585292879       -1.2866512181
 H          0.6312312838       -0.9899930467       -1.2762908401
 H          2.4294286783       -1.3524547126        1.2809805327
 H          0.6457812601       -0.9841846961        1.2896796198
  13
        -17.89032826
 N          0.7916078622        1.4450460348       -0.0012407966
 C          1.8402543541        0.3947939167       -0.0028491273
 C          1.5880026552       -0.8905552388       -0.7552239724
 C          1.5930469837       -0.8875421168        0.7558827816
 Cl        -2.3144161938       -0.1366603526        0.0012853055
 H          0.8612866532        2.0440760189       -0.8383894713
 H          0.8649093218        2.0474078049        0.8380993931
 H         -0.1482558321        1.0152323078        0.0007194929
 H          2.8620778023        0.7921443559       -0.0069103408
 H          2.4207784254       -1.3571729166       -1.2854728913
 H          0.6364370999       -0.9925605624       -1.2789513310
 H          2.4289246535       -1.3520599522        1.2828312702
 H          0.6446338323       -0.9870752006        1.2862080599
  13
        -17.88497645
 N          0.6064594436        0.7742129923       -0.6811967928
 C          1.5209764135        0.0827893812        0.2613079047
 C          2.8800706707       -0.3597253020       -0.2271338519
 C          1.8080654270       -1.3859463473        0.0585641444
 Cl        -2.7036669203        0.2876709305        0.2978387862
 H          0.8033068184        1.7864026685       -0.7177357788
 H         -0.3841319970        0.6440806193       -0.4018199255
 H          0.7144285023        0.3983718913       -1.6361841525
 H          1.4464849105        0.4458968941        1.2931409430
 H          3.7306588377       -0.2811292930        0.4531666946
 H          3.1404811748       -0.1442050217       -1.2643744551
 H          1.9092843801       -2.0248575832        0.9381807781
 H          1.3202666815       -1.8862604375       -0.7795024443
  13
        -17.88489280
 N          0.6119173245        0.7920971477       -0.6785790853
 C          1.5200961485        0.0885430629        0.2610992362
 C          2.8738194612       -0.3686444785       -0.2285127798
 C          1.7895710936       -1.3828771274        0.0537064135
 Cl        -2.6960914508        0.2793065117        0.2990718563
 H          0.8110335947        1.8041449410       -0.7037275317
 H         -0.3799411373        0.6613728681       -0.4043128098
 H          0.7231288491        0.4257545259       -1.6368220365
 H          1.4491876556        0.4484728601        1.2942980563
 H          3.7250500283       -0.3021008687        0.4522352414
 H          3.1370854372       -0.1527221812       -1.2649405968
 H          1.8828945750       -2.0258124299        0.9312605323
 H          1.2954036631       -1.8739778560       -0.7860625951
  13
        -17.88472483
 N          0.6131503182        0.7985267138       -0.6767475807
 C          1.5212132858        0.0919911137        0.2608058738
 C          2.8708710099       -0.3735445012       -0.2323790239
 C          1.7817754382       -1.3811680588        0.0547638723
 Cl        -2.6929876262        0.2761425695        0.2994157050
 H          0.7244172819        0.4354103244       -1.6351604307
 H          0.8125697375        1.8146337549       -0.6990416026
 H         -0.3757013035        0.6666399827       -0.4035664061
 H          1.4554128001        0.4537413475        1.2937031349
 H          3.7246089294       -0.3107099053        0.4455785285
 H          3.1320536394       -0.1604459015       -1.2699164759
 H          1.8752239390       -2.0235064638        0.9327354727
 H          1.2836686586       -1.8717541572       -0.7829832925
