  13
        -17.97361735
 N          0.8192988599       -1.4585460528       -0.0000557612
 C          1.8460932883       -0.3804370856        0.0008584773
 C          1.5678367025        0.8976156294        0.7552418490
 C          1.5699980740        0.8967241678       -0.7556967796
 Cl        -2.3128955662        0.1308179301       -0.0001303825
 H          0.9043302421       -2.0517210637        0.8353093060
 H          0.9057470496       -2.0517165161       -0.8353018201
 H         -0.1280028574       -1.0454252513       -0.0007507932
 H          2.8766690163       -0.7531110635        0.0025186723
 H          2.3904588741        1.3818120209        1.2838880668
 H          0.6157461697        0.9791931503        1.2804255388
 H          2.3938586434        1.3807880660       -1.2825738723
 H          0.6190807313        0.9786581405       -1.2829629803
  13
        -17.97085569
 N          0.6389026510       -0.8245616653       -0.6697109483
 C          1.5250737347       -0.0776474142        0.2649373552
 C          1.7652188982        1.3941400642        0.0296598926
 C          2.8745042023        0.3979888170       -0.2169475669
 Cl        -2.7016450594       -0.2841098421        0.2979902085
 H          0.8555441604       -1.8299092257       -0.6633866081
 H          0.7550994448       -0.4805639357       -1.6316401765
 H         -0.3547088832       -0.7014014306       -0.4087439639
 H          1.4501603085       -0.4150146226        1.3049246771
 H          1.8327653356        2.0565441381        0.8941041513
 H          1.2734689256        1.8577510975       -0.8259175952
 H          3.7173272880        0.3642796714        0.4752686676
 H          3.1572466264        0.1695438019       -1.2448739020
