  13
  -17.973617350000001       0.30933519759265904      !md8
 N          0.8192988599       -1.4585460528       -0.0000557612
 C          1.8460932883       -0.3804370856        0.0008584773
 C          1.5678367025        0.8976156294        0.7552418490
 C          1.5699980740        0.8967241678       -0.7556967796
 Cl        -2.3128955662        0.1308179301       -0.0001303825
 H          0.9043302421       -2.0517210637        0.8353093060
 H          0.9057470496       -2.0517165161       -0.8353018201
 H         -0.1280028574       -1.0454252513       -0.0007507932
 H          2.8766690163       -0.7531110635        0.0025186723
 H          2.3904588741        1.3818120209        1.2838880668
 H          0.6157461697        0.9791931503        1.2804255388
 H          2.3938586434        1.3807880660       -1.2825738723
 H          0.6190807313        0.9786581405       -1.2829629803
  13
  -17.973580240000000       0.29742314641429374      !gc
 N          0.8193856392       -1.4593230878       -0.0023510305
 C          1.8453786874       -0.3804712681        0.0022968984
 C          1.5631563795        0.8981738235        0.7542063019
 C          1.5716786598        0.8957315006       -0.7567172164
 Cl        -2.3115732086        0.1314232583        0.0013270006
 H         -0.1254504321       -1.0479038039       -0.0030189537
 H          0.9035531961       -2.0542384618        0.8318560425
 H          0.9072999740       -2.0520888653       -0.8413622824
 H          2.8761581345       -0.7525372678        0.0083305690
 H          2.3834386634        1.3829903702        1.2859006426
 H          0.6087756037        0.9804617321        1.2751140420
 H          2.3976100362        1.3801294906       -1.2800392010
 H          0.6230458794        0.9767550895       -1.2882357906
  13
  -17.973575889999999       0.29605720999844731      !mtd12
 N          0.8191074159       -1.4588165541       -0.0017416102
 C          1.8455830864       -0.3803968399        0.0018935692
 C          1.5647826034        0.8981419306        0.7544552301
 C          1.5715381599        0.8961641037       -0.7564698027
 Cl        -2.3121327409        0.1310653752        0.0008980655
 H          0.9064650540       -2.0503018363       -0.8380665796
 H         -0.1255570130       -1.0471334445       -0.0024280485
 H          0.9039704604       -2.0554450032        0.8348581504
 H          2.8762269038       -0.7528484056        0.0069840715
 H          2.3857095825        1.3830320512        1.2850881713
 H          0.6110341129        0.9807019207        1.2764708518
 H          2.3974964559        1.3786085338       -1.2815483125
 H          0.6224926027        0.9768416335       -1.2873028745
  13
  -17.970855690000000        1.6644021866003694E-002 !md1
 N          0.6389026510       -0.8245616653       -0.6697109483
 C          1.5250737347       -0.0776474142        0.2649373552
 C          1.7652188982        1.3941400642        0.0296598926
 C          2.8745042023        0.3979888170       -0.2169475669
 Cl        -2.7016450594       -0.2841098421        0.2979902085
 H          0.8555441604       -1.8299092257       -0.6633866081
 H          0.7550994448       -0.4805639357       -1.6316401765
 H         -0.3547088832       -0.7014014306       -0.4087439639
 H          1.4501603085       -0.4150146226        1.3049246771
 H          1.8327653356        2.0565441381        0.8941041513
 H          1.2734689256        1.8577510975       -0.8259175952
 H          3.7173272880        0.3642796714        0.4752686676
 H          3.1572466264        0.1695438019       -1.2448739020
  13
  -17.970834480000001        1.6274619237554688E-002 !gc
 N          0.6410406794       -0.8324264596        0.6687359331
 C          1.5247971023       -0.0810218599       -0.2645896725
 C          2.8707019375        0.4024412899        0.2196555999
 C          1.7562486698        1.3921366114       -0.0294059597
 Cl        -2.6974667993       -0.2800347883       -0.2987760283
 H          0.7580513750       -0.4918601992        1.6317854201
 H          0.8586510372       -1.8375630388        0.6583551708
 H         -0.3528685496       -0.7091336805        0.4090440098
 H          1.4535216405       -0.4187658140       -1.3047162513
 H          3.7149090086        0.3733369193       -0.4710458259
 H          3.1524555421        0.1747796457        1.2480089654
 H          1.8222636837        2.0546662282       -0.8938984056
 H          1.2587412461        1.8527534795        0.8244820599
  13
  -17.970827340000000        1.6152119526844397E-002 !md5
 N          0.6389992591       -0.8278579706        0.6695532034
 C          1.5241635054       -0.0792724477       -0.2647099284
 C          2.8719089856        0.3998685074        0.2185516630
 C          1.7605461725        1.3931732732       -0.0301132467
 Cl        -2.6985565533       -0.2822781758       -0.2985367345
 H          0.8562838050       -1.8330644636        0.6619639603
 H         -0.3518692188       -0.7050659242        0.4098266074
 H          0.7557853879       -0.4839916140        1.6346437162
 H          1.4510948846       -0.4170142894       -1.3047102128
 H          3.7154059101        0.3677158729       -0.4728768309
 H          3.1536756753        0.1713592949        1.2467176461
 H          1.8275186003        2.0552159374       -0.8949134117
 H          1.2664851481        1.8559404795        0.8246061162
  13
  -17.970824019999998        1.6095473352605864E-002 !gc
 N          0.6380939576       -0.8228325159       -0.6700130219
 C          1.5247764657       -0.0770560425        0.2650702591
 C          1.7667943016        1.3945415616        0.0302303958
 C          2.8747311943        0.3970838387       -0.2168295251
 Cl        -2.7019279965       -0.2849127263        0.2978895779
 H         -0.3524138868       -0.7001758419       -0.4088936602
 H          0.8544896389       -1.8282714553       -0.6649754113
 H          0.7537901599       -0.4766292317       -1.6343914813
 H          1.4496579414       -0.4145232409        1.3050194832
 H          1.8350696830        2.0562465352        0.8951541167
 H          1.2754624607        1.8591029687       -0.8250771280
 H          3.7174968760        0.3620284886        0.4753953624
 H          3.1566046439        0.1666155946       -1.2445475346
  13
  -17.970819909999999        1.6025623234474571E-002 !md1
 N          0.6386750585       -0.8256420959        0.6701079615
 C          1.5240949460       -0.0781327973       -0.2647333133
 C          2.8732521271        0.3984308953        0.2172516440
 C          1.7633308014        1.3937734249       -0.0296577600
 Cl        -2.7000247719       -0.2833145858       -0.2984049726
 H         -0.3521608123       -0.7024579566        0.4104888352
 H          0.7556142303       -0.4822877205        1.6321979352
 H          0.8558239888       -1.8339469813        0.6629689261
 H          1.4494191148       -0.4155956835       -1.3047119521
 H          3.7160935372        0.3654669473       -0.4749391825
 H          3.1555585109        0.1684270107        1.2449389364
 H          1.8305510530        2.0567279679       -0.8937442058
 H          1.2712576793        1.8568225766        0.8260569795
  13
  -17.970817960000002        1.5992588777116810E-002 !gc
 N          0.6388268165       -0.8253036186       -0.6697465291
 C          1.5241532947       -0.0776057196        0.2650429184
 C          1.7641355968        1.3941509422        0.0294076514
 C          2.8735956380        0.3981473216       -0.2168391990
 Cl        -2.7006127620       -0.2836903168        0.2980315124
 H          0.7552088089       -0.4815255505       -1.6317320598
 H         -0.3520490477       -0.7028785939       -0.4098845464
 H          0.8567394263       -1.8334423687       -0.6630274853
 H          1.4491687865       -0.4146275734        1.3051409126
 H          1.8317199464        2.0565746783        0.8938314358
 H          1.2732522390        1.8581170452       -0.8264778480
 H          3.7161774521        0.3647136748        0.4756807719
 H          3.1561338087        0.1673368189       -1.2442977983
