  13
        -17.89047731
 N          0.7927286039        1.4466164297        0.0000763999
 C          1.8399850785        0.3949903253       -0.0035306824
 C          1.5841751182       -0.8904555222       -0.7546100810
 C          1.5927870507       -0.8865484336        0.7564849381
 Cl        -2.3131657493       -0.1378571487        0.0005330673
 H          0.8666074759        2.0447114530        0.8375330405
 H         -0.1503716341        1.0166665665        0.0013588953
 H          0.8631509064        2.0477091506       -0.8367438818
 H          2.8623325611        0.7909697636       -0.0099463413
 H          2.4149907597       -1.3585292879       -1.2866512181
 H          0.6312312838       -0.9899930467       -1.2762908401
 H          2.4294286783       -1.3524547126        1.2809805327
 H          0.6457812601       -0.9841846961        1.2896796198
