  13
  -17.890477310000001       0.37113963790177312      !md1
 N          0.7927286039        1.4466164297        0.0000763999
 C          1.8399850785        0.3949903253       -0.0035306824
 C          1.5841751182       -0.8904555222       -0.7546100810
 C          1.5927870507       -0.8865484336        0.7564849381
 Cl        -2.3131657493       -0.1378571487        0.0005330673
 H          0.8666074759        2.0447114530        0.8375330405
 H         -0.1503716341        1.0166665665        0.0013588953
 H          0.8631509064        2.0477091506       -0.8367438818
 H          2.8623325611        0.7909697636       -0.0099463413
 H          2.4149907597       -1.3585292879       -1.2866512181
 H          0.6312312838       -0.9899930467       -1.2762908401
 H          2.4294286783       -1.3524547126        1.2809805327
 H          0.6457812601       -0.9841846961        1.2896796198
  13
  -17.890328260000000       0.31698499334582553      !md4
 N          0.7916078622        1.4450460348       -0.0012407966
 C          1.8402543541        0.3947939167       -0.0028491273
 C          1.5880026552       -0.8905552388       -0.7552239724
 C          1.5930469837       -0.8875421168        0.7558827816
 Cl        -2.3144161938       -0.1366603526        0.0012853055
 H          0.8612866532        2.0440760189       -0.8383894713
 H          0.8649093218        2.0474078049        0.8380993931
 H         -0.1482558321        1.0152323078        0.0007194929
 H          2.8620778023        0.7921443559       -0.0069103408
 H          2.4207784254       -1.3571729166       -1.2854728913
 H          0.6364370999       -0.9925605624       -1.2789513310
 H          2.4289246535       -1.3520599522        1.2828312702
 H          0.6446338323       -0.9870752006        1.2862080599
  13
  -17.890293350000000       0.30548871889543727      !md5
 N          0.7921455413        1.4466793095       -0.0052504888
 C          1.8393502997        0.3949671454       -0.0004695055
 C          1.5910387406       -0.8886549312       -0.7570061638
 C          1.5844475405       -0.8883904551        0.7540798549
 Cl        -2.3121673507       -0.1378896953        0.0039225551
 H         -0.1472174713        1.0181521406       -0.0057230738
 H          0.8659877944        2.0462035123       -0.8465739935
 H          0.8625902621        2.0486184243        0.8309467487
 H          2.8617250973        0.7908854615        0.0036462382
 H          2.4272086124       -1.3554618632       -1.2817274556
 H          0.6433553934       -0.9889316920       -1.2880543930
 H          2.4157001566       -1.3556299451        1.2859067423
 H          0.6319379399       -0.9878998990        1.2770358810
  13
  -17.884976450000000        1.1003152157765051E-003 !md8
 N          0.6064594436        0.7742129923       -0.6811967928
 C          1.5209764135        0.0827893812        0.2613079047
 C          2.8800706707       -0.3597253020       -0.2271338519
 C          1.8080654270       -1.3859463473        0.0585641444
 Cl        -2.7036669203        0.2876709305        0.2978387862
 H          0.8033068184        1.7864026685       -0.7177357788
 H         -0.3841319970        0.6440806193       -0.4018199255
 H          0.7144285023        0.3983718913       -1.6361841525
 H          1.4464849105        0.4458968941        1.2931409430
 H          3.7306588377       -0.2811292930        0.4531666946
 H          3.1404811748       -0.1442050217       -1.2643744551
 H          1.9092843801       -2.0248575832        0.9381807781
 H          1.3202666815       -1.8862604375       -0.7795024443
  13
  -17.884910410000000        1.0260469554211134E-003 !gc
 N          0.6123151412        0.7925411418        0.6764935418
 C          1.5198208882        0.0871211259       -0.2624322511
 C          1.7900283154       -1.3839473338       -0.0523854674
 C          2.8738183702       -0.3685660729        0.2274140668
 Cl        -2.6963752939        0.2799494276       -0.2976434257
 H          0.7230046135        0.4274074581        1.6342060699
 H         -0.3795650198        0.6617990136        0.4023163622
 H          0.8125646653        1.8053867077        0.7009263853
 H          1.4485206949        0.4453504671       -1.2961959200
 H          1.8831471360       -2.0282149397       -0.9291388059
 H          1.2966672038       -1.8740770419        0.7881457692
 H          3.7246044874       -0.3024393017       -0.4537225447
 H          3.1371992674       -0.1501011254        1.2635088594
  13
  -17.884892799999999        1.0071038132786318E-003 !gc
 N          0.6119173245        0.7920971477       -0.6785790853
 C          1.5200961485        0.0885430629        0.2610992362
 C          2.8738194612       -0.3686444785       -0.2285127798
 C          1.7895710936       -1.3828771274        0.0537064135
 Cl        -2.6960914508        0.2793065117        0.2990718563
 H          0.8110335947        1.8041449410       -0.7037275317
 H         -0.3799411373        0.6613728681       -0.4043128098
 H          0.7231288491        0.4257545259       -1.6368220365
 H          1.4491876556        0.4484728601        1.2942980563
 H          3.7250500283       -0.3021008687        0.4522352414
 H          3.1370854372       -0.1527221812       -1.2649405968
 H          1.8828945750       -2.0258124299        0.9312605323
 H          1.2954036631       -1.8739778560       -0.7860625951
  13
  -17.884724830000000        8.4310288053177811E-004 !mtd5
 N          0.6131503182        0.7985267138       -0.6767475807
 C          1.5212132858        0.0919911137        0.2608058738
 C          2.8708710099       -0.3735445012       -0.2323790239
 C          1.7817754382       -1.3811680588        0.0547638723
 Cl        -2.6929876262        0.2761425695        0.2994157050
 H          0.7244172819        0.4354103244       -1.6351604307
 H          0.8125697375        1.8146337549       -0.6990416026
 H         -0.3757013035        0.6666399827       -0.4035664061
 H          1.4554128001        0.4537413475        1.2937031349
 H          3.7246089294       -0.3107099053        0.4455785285
 H          3.1320536394       -0.1604459015       -1.2699164759
 H          1.8752239390       -2.0235064638        0.9327354727
 H          1.2836686586       -1.8717541572       -0.7829832925
  13
  -17.884708400000001        8.2857126517300427E-004 !md1
 N          0.6135551297        0.7976248896        0.6749429221
 C          1.5213327762        0.0901392535       -0.2623107067
 C          1.7840797704       -1.3824503769       -0.0536138036
 C          2.8717976882       -0.3725399568        0.2309057816
 Cl        -2.6944537429        0.2774682609       -0.2979516979
 H          0.8129299448        1.8097105323        0.6967443345
 H          0.7247408331        0.4335169313        1.6372461802
 H         -0.3753493374        0.6664090225        0.4015813551
 H          1.4545342041        0.4500865602       -1.2957852472
 H          1.8770867075       -2.0257849927       -0.9310604526
 H          1.2859692218       -1.8717553560        0.7846169927
 H          3.7248185324       -0.3084185160       -0.4476540457
 H          3.1335413299       -0.1584754328        1.2683286118
  13
  -17.884673849999999        7.9882525602436476E-004 !gc
 N          0.6116229049        0.7924859572       -0.6787807111
 C          1.5188143288        0.0880797384        0.2612266966
 C          2.8732116752       -0.3682566842       -0.2273962464
 C          1.7889638982       -1.3830533623        0.0527802404
 Cl        -2.6951467629        0.2792080853        0.2991658309
 H         -0.3765036791        0.6618602569       -0.4060840651
 H          0.7236146595        0.4256787470       -1.6399623122
 H          0.8111808414        1.8054618330       -0.7035348836
 H          1.4471801826        0.4474636841        1.2945694500
 H          3.7237231120       -0.3020537329        0.4542865333
 H          3.1376147684       -0.1516445054       -1.2633882286
 H          1.8815153029       -2.0268524307        0.9297807704
 H          1.2961335160       -1.8737228361       -0.7880300209
  13
  -17.884654560000001        7.8268447075854669E-004 !md4
 N          0.6156353824        0.8059002974        0.6735329952
 C          1.5206404149        0.0929991572       -0.2621658721
 C          1.7748866982       -1.3808676330       -0.0520916818
 C          2.8680746698       -0.3769516437        0.2323594901
 Cl        -2.6901082919        0.2734768201       -0.2984313569
 H         -0.3728820300        0.6744449670        0.4027124177
 H          0.8171568886        1.8216950625        0.6909560746
 H          0.7274050189        0.4464506263        1.6343137262
 H          1.4563929919        0.4521361925       -1.2960750793
 H          1.8646212788       -2.0255770257       -0.9288771904
 H          1.2736929755       -1.8665780620        0.7863652621
 H          3.7221314271       -0.3205794682       -0.4455480077
 H          3.1301620205       -0.1616757362        1.2694477030
