13
 energy: -17.938571593470 gnorm: 0.000650328098 xtb: 6.5.1 (fef0646)
N            1.18530633477449        0.33093336397981       -0.19976303710555
C            2.60411831916502        0.24388968227097        0.04624924942125
C            3.57808581162145        1.15103830867675       -0.65221886442804
C            3.49201844776454       -0.30340872853909       -1.02312993935318
Cl          -0.18755202437678       -2.26444408661127        0.14074069806539
H            0.74790160270424        1.01735303020563        0.40684836433754
H            0.46928179812995       -1.08571516657639        0.00302650688790
H            1.00595988730810        0.58513910673639       -1.16593253069512
H            2.80974312474305       -0.03223135103670        1.07241358694893
H            4.44546651541847        1.49814817612241       -0.11318521830554
H            3.18667344129385        1.87344568939637       -1.35390102341339
H            4.29795393658839       -0.95893149985847       -0.73560659593723
H            3.04066280486493       -0.56148652476585       -1.96867119642278
