13
 energy: -17.979732739926 gnorm: 0.000791974660 xtb: 6.5.1 (fef0646)
N            1.55028820566554        0.07203809557890        0.41432279140151
C            2.96355614931931        0.04829348083183        0.04060705590621
C            3.35727684808245        0.71855558658607       -1.23642094070614
C            3.35431977740611       -0.77825900415617       -1.14194982048914
Cl          -0.29909080173839       -0.02617098641931       -2.01449712719627
H            1.30789626872832        0.93236215373035        0.91425391647791
H            1.30034419550892       -0.74114765234544        0.98482814214942
H            0.94531308898808        0.03895966342362       -0.44985675359891
H            3.63344628143828        0.10108462693116        0.88699763861272
H            4.29837207516300        1.24086262630318       -1.28136502396345
H            2.56886501783751        1.16920451158638       -1.81819074921794
H            4.29290150863198       -1.30700984440735       -1.12164937686672
H            2.56315138530281       -1.29411325771611       -1.66287975174610
