27
 energy: -36.059463354186 gnorm: 0.000686315435 xtb: 6.5.1 (fef0646)
N            2.99503552509688        0.96631686837888       -0.88465949196354
C            2.34712106955722        0.01840803891883        0.05158242199768
C            2.80886708359741        0.24040715291688        1.49373415065953
C            2.32356823354454       -0.92232467234924        2.36358466060929
C            2.78024254639656       -0.74872298405531        3.80881400498297
C            2.24370668846791        0.57347007648549        4.38381396355512
C            2.77351159563184        0.71089559845834        5.79330288078069
O            1.97677444489165        0.30776837095504        6.78365831565485
O            3.88208763387600        1.12654305433118        6.04705800130473
C            2.72213395485585        1.73954963014342        3.51510970146156
C            2.27943137274407        1.55895046294500        2.06531503133917
H            2.70845123168986        0.77094246254959       -1.85048229383185
H            4.01625654396630        0.88485420007816       -0.82058094246196
H            2.73189018851099        1.93041338069440       -0.65343006457221
H            2.59546824827230       -0.99868758327100       -0.24980227257062
H            1.26602110079748        0.14161433308940       -0.00738412273827
H            3.90208515529347        0.25313114347716        1.53358077814793
H            2.71689741631356       -1.86618359760607        1.98512749743793
H            1.23408746855454       -0.97454681845711        2.33499529179881
H            3.87094823471569       -0.73099335197182        3.86189979344015
H            2.43576980124062       -1.58956898361244        4.41291792843196
H            1.15025130297789        0.54592631674469        4.39493352362223
H            1.09638023645522        0.00811009862338        6.49196435390751
H            3.81050449330411        1.79311409136421        3.58320105069816
H            2.32618506602122        2.67503123738955        3.91548859712882
H            2.64986011448385        2.41496741094802        1.50207348416571
H            1.18864324874289        1.56424406283135        2.02623375701380
