  17
        -17.17147789
 N         -1.7196276231       -0.0001337337       -0.4852731903
 C         -0.8670524110        0.0022316460        0.7390199259
 C          0.6496912566        0.0000350377        0.4632483104
 C          1.0950563590       -1.2673608625       -0.2733331836
 C          1.0979366345        1.2653687220       -0.2751623163
 H         -1.5517527019       -0.8323849019       -1.0682232334
 H         -1.5551855757        0.8322876930       -1.0688620388
 H         -2.7214832811       -0.0022169359       -0.2418916234
 H         -1.1292347438       -0.8695498893        1.3508848026
 H         -1.1275116807        0.8777661581        1.3462236968
 H          1.1555222573        0.0001357502        1.4460915950
 H          0.7817569066       -2.1703446997        0.2539151725
 H          2.1809760375       -1.3083700344       -0.3782763035
 H          0.6738155497       -1.3075866389       -1.2779039454
 H          0.6751931769        1.3059839478       -1.2791047360
 H          2.1839321374        1.3030295096       -0.3815406438
 H          0.7881679772        2.1698368332        0.2515711319
