  17
        -17.17147789
 N         -1.7196276231       -0.0001337337       -0.4852731903
 C         -0.8670524110        0.0022316460        0.7390199259
 C          0.6496912566        0.0000350377        0.4632483104
 C          1.0950563590       -1.2673608625       -0.2733331836
 C          1.0979366345        1.2653687220       -0.2751623163
 H         -1.5517527019       -0.8323849019       -1.0682232334
 H         -1.5551855757        0.8322876930       -1.0688620388
 H         -2.7214832811       -0.0022169359       -0.2418916234
 H         -1.1292347438       -0.8695498893        1.3508848026
 H         -1.1275116807        0.8777661581        1.3462236968
 H          1.1555222573        0.0001357502        1.4460915950
 H          0.7817569066       -2.1703446997        0.2539151725
 H          2.1809760375       -1.3083700344       -0.3782763035
 H          0.6738155497       -1.3075866389       -1.2779039454
 H          0.6751931769        1.3059839478       -1.2791047360
 H          2.1839321374        1.3030295096       -0.3815406438
 H          0.7881679772        2.1698368332        0.2515711319
  17
        -17.17067570
 N         -1.9394017118       -0.5134016665        0.1583352849
 C         -0.8776984967        0.4722217265       -0.2028131770
 C          0.5259836123        0.0887709919        0.3005364636
 C          1.0431662351       -1.1884908043       -0.3688253283
 C          1.5153874909        1.2474249739        0.1187738514
 H         -2.8705193342       -0.1913985534       -0.1454007432
 H         -1.9840750301       -0.6585061924        1.1772229497
 H         -1.7795585456       -1.4301538829       -0.2823586947
 H         -1.1561308750        1.4517865961        0.2043336685
 H         -0.8529690789        0.6003793932       -1.2906485900
 H          0.4364409562       -0.1108687651        1.3820362950
 H          2.0377830881       -1.4545080382       -0.0058207520
 H          1.1144633514       -1.0604887472       -1.4495230266
 H          0.3904173317       -2.0416038919       -0.1798450635
 H          1.1783510381        2.1506194507        0.6308774506
 H          1.6359448254        1.4946506593       -0.9367217582
 H          2.5029692796        0.9972110029        0.5107496019
