  50
        -83.65685733
 N         -8.6580136737       -1.7462450567        0.2026092705
 C         -8.8784146674       -0.3253041023        0.5965385016
 C         -8.2384483916        0.6668222684       -0.3783414235
 C         -6.7475479606        0.6817030423       -0.3418256937
 C         -5.9647691708        1.7691338328       -0.5710222784
 C         -4.5699673404        1.5079327977       -0.4971037258
 C         -4.2615762212        0.2077964702       -0.2094103240
 C         -2.9359803957       -0.3352680097       -0.0832746411
 C         -2.6336992001       -1.6291227340        0.2423697469
 C         -1.2488007621       -1.9119956115        0.3107324178
 C         -0.7246916572       -3.2577195689        0.6745259181
 C         -0.4591330909       -0.8149616357        0.0248172772
 C          0.9973044480       -0.7726021119        0.0118680551
 C          1.7497980116       -1.7307893701       -0.6440551636
 C          3.1438641372       -1.6755015325       -0.7060511974
 C          3.8797700430       -0.6582892561       -0.1277269382
 C          5.3306571450       -0.6371193784       -0.2548372699
 C          6.1467850368        0.4557052524       -0.4503208745
 C          5.6712704618        1.8568125480       -0.6194747774
 C          7.5286737685        0.1100308570       -0.5072920052
 C          7.7713068647       -1.2142425452       -0.3853846472
 S          6.3008387578       -2.0903950463       -0.1966420789
 C          3.1592713199        0.3411760088        0.6182190193
 N          3.6642173265        1.3219029499        1.3417661866
 S          2.4226909352        2.1483433774        2.0218848267
 N          1.1915416111        1.2331634443        1.4411297484
 C          1.7080017005        0.2852086894        0.6839583044
 S         -1.4693744419        0.5642123133       -0.3408040297
 S         -5.7386803525       -0.6982103936       -0.0233902031
 Cl         1.0721444515        2.4827627351       -1.5261999760
 H         -9.0907513841       -1.9486327423       -0.7102532362
 H         -9.0366338375       -2.4069505694        0.8934989254
 H         -7.6509395903       -1.9186994120        0.1108609818
 H         -8.4735162211       -0.1556852515        1.6006820703
 H         -9.9565472617       -0.1399697698        0.6765004065
 H         -8.6031406182        1.6803851628       -0.1751090100
 H         -8.5624232434        0.4355492147       -1.3980483048
 H         -6.3705921566        2.7430661312       -0.7965228289
 H         -3.8151211878        2.2618391390       -0.6561543589
 H         -3.3910087371       -2.3700148858        0.4401866318
 H         -0.6032328484       -3.8807452845       -0.2114220107
 H         -1.4065522983       -3.7701028939        1.3533655635
 H          0.2415290513       -3.1808167967        1.1738004352
 H          1.2339328802       -2.5241398489       -1.1556812636
 H          3.6756347459       -2.4404796001       -1.2443864038
 H          4.6765872497        1.8797074451       -1.0644610058
 H          6.3401205955        2.4230781705       -1.2680760113
 H          5.6205379731        2.3658741424        0.3424941862
 H          8.3043444693        0.8476600626       -0.6444139684
 H          8.7404081578       -1.6750413787       -0.4061392662
