29
 energy: -29.826725846375 gnorm: 0.000471737077 xtb: 6.5.1 (fef0646)
N            0.86364466906875        0.05390776476322       -0.11270810274230
C            2.36297163062806        0.04793292568785       -0.10179235419352
C            2.88406362241042       -0.60858710280392        1.16747508713813
C            4.41567367118122       -0.61906693527433        1.18781437751477
C            4.95321826823534       -1.27766656532983        2.45756233580617
C            6.48015760815498       -1.29177504317994        2.48598762685634
C            7.01661402439741       -1.95062122347199        3.75477333446487
C            8.54315307172758       -1.96854417443870        3.78938752326977
C            9.06965878696466       -2.62726289794822        5.05825953546834
H            0.49258626342414        0.49406807906434       -0.96397358489039
H            0.51423042409459        0.56735750402806        0.70745604907013
H            0.51391272885907       -0.91201859155199       -0.05734407720931
H            2.71196574759028        1.07924188821518       -0.16736095849026
H            2.71159983305849       -0.49480707869854       -0.98132891107556
H            2.52542681254367       -1.63780203203383        1.23088924290846
H            2.52536628431932       -0.06569571753938        2.04412386521651
H            4.78771680386193        0.40480907277665        1.12876651054243
H            4.78777137683603       -1.16058750810789        0.31688201181672
H            4.58412156797311       -2.30341121428512        2.51924577198386
H            4.58343700049986       -0.73783725980223        3.33164733279984
H            6.85343565062256       -0.26727811862813        2.42623337347099
H            6.85409262978200       -1.83177007813427        1.61358809396523
H            6.64409840286650       -2.97566107460589        3.81564917694807
H            6.64401763907705       -1.41084682628882        4.62827150757258
H            8.91751665763056       -0.94432150401891        3.72990412372766
H            8.91754987554988       -2.50924195719266        2.91748870604269
H            8.72432647659797       -2.09092229803805        5.93924262198599
H           10.15641054564540       -2.62967986184401        5.06287366359006
H            8.72428192639919       -3.65638217131862        5.12656611644173
