16
 energy: -21.158244004604 gnorm: 0.000509843336 xtb: 6.5.1 (fef0646)
N            1.13306230333993       -0.05901455288197       -0.32032111382879
C            2.60232303906411       -0.14430206662906       -0.24864664875945
C            3.14739459944222       -1.16892177635880        0.75230673059818
C            4.09855726058316       -0.09333774480316        1.30123898523741
C            3.27947330795656        0.97169306990892        0.55433574912620
Cl          -0.12085675661078        0.43034794507982        2.42820060963236
H            0.72712008089591       -0.92473124274688       -0.68488694665763
H            0.83518782687217        0.73256008856167       -0.89589682847162
H            0.73332225513911        0.09349457669006        0.64320760345748
H            3.01146853662042       -0.26298458616174       -1.25220607048931
H            3.60622893443738       -2.06365530510285        0.34205394142757
H            2.39160941534508       -1.44424461748200        1.48380257503881
H            5.11237977835563       -0.19066552003914        0.92160495160464
H            4.13016091869468        0.00485858641540        2.38272565014587
H            3.83872658072787        1.71496189973747       -0.00582935117036
H            2.56888191913588        1.46502124581170        1.21327016310819
