  22
        -30.69962966
 N         -1.1185870401       -0.4603872110       -0.8945187967
 C         -0.4329672455        0.0680694048        0.2905918115
 C         -0.8376706439       -0.6893215305        1.5524226674
 C          1.0667662072        0.0855409372        0.1046746135
 C          1.7626215629       -1.0862121078       -0.1470404582
 C          3.1322198608       -1.0691769695       -0.3201630288
 C          3.8234229747        0.1224885459       -0.2434345106
 C          3.1424380386        1.2961445037        0.0067715932
 C          1.7730798784        1.2773925366        0.1796051457
 Cl        -4.2917530599        0.2506696645       -0.1904216693
 H         -0.8823087145       -1.4399904462       -0.9963430951
 H         -0.7494920117       -0.0016335152       -1.7198222838
 H         -3.0187707562       -0.0358686389       -0.4836206753
 H         -0.7662766210        1.1133016172        0.3997990535
 H         -1.9178729677       -0.6689599367        1.6983054630
 H         -0.3659339682       -0.2652157461        2.4396713535
 H         -0.5362590131       -1.7339953105        1.4862900178
 H          1.2251067436       -2.0173116984       -0.2060296455
 H          3.6618712022       -1.9877297024       -0.5152987900
 H          4.8929779147        0.1365368102       -0.3786217453
 H          3.6801674693        2.2286610868        0.0672592274
 H          1.2422909826        2.1941381214        0.3747809596
