  22
        -30.69962966
 N         -1.1185870401       -0.4603872110       -0.8945187967
 C         -0.4329672455        0.0680694048        0.2905918115
 C         -0.8376706439       -0.6893215305        1.5524226674
 C          1.0667662072        0.0855409372        0.1046746135
 C          1.7626215629       -1.0862121078       -0.1470404582
 C          3.1322198608       -1.0691769695       -0.3201630288
 C          3.8234229747        0.1224885459       -0.2434345106
 C          3.1424380386        1.2961445037        0.0067715932
 C          1.7730798784        1.2773925366        0.1796051457
 Cl        -4.2917530599        0.2506696645       -0.1904216693
 H         -0.8823087145       -1.4399904462       -0.9963430951
 H         -0.7494920117       -0.0016335152       -1.7198222838
 H         -3.0187707562       -0.0358686389       -0.4836206753
 H         -0.7662766210        1.1133016172        0.3997990535
 H         -1.9178729677       -0.6689599367        1.6983054630
 H         -0.3659339682       -0.2652157461        2.4396713535
 H         -0.5362590131       -1.7339953105        1.4862900178
 H          1.2251067436       -2.0173116984       -0.2060296455
 H          3.6618712022       -1.9877297024       -0.5152987900
 H          4.8929779147        0.1365368102       -0.3786217453
 H          3.6801674693        2.2286610868        0.0672592274
 H          1.2422909826        2.1941381214        0.3747809596
  22
        -30.69852292
 N         -1.9107142963       -1.1644181850        0.5156028394
 C         -0.9149806526       -0.5798620887        1.4216667289
 C         -0.6522694952       -1.4746007464        2.6298147991
 C          0.3609686740       -0.2434429073        0.6845319252
 C          1.0905368960       -1.2320185774        0.0436367333
 C          2.2463509578       -0.9208087631       -0.6442224782
 C          2.6865939417        0.3855854938       -0.7000629393
 C          1.9691997354        1.3793080931       -0.0664945563
 C          0.8142636926        1.0663970569        0.6213764335
 Cl        -1.8324477487        1.2078632905       -1.8289402740
 H         -2.7572134035       -1.3754515266        1.0319413141
 H         -1.5634460527       -2.0550141365        0.1794365756
 H         -1.8580358679        0.2550639037       -0.8915586859
 H         -1.3412248135        0.3719374665        1.7793002320
 H          0.0683969421       -1.0200747845        3.3106112171
 H         -0.2466864425       -2.4357465373        2.3152822987
 H         -1.5682989416       -1.6713135010        3.1873287364
 H          0.7468845710       -2.2516306553        0.0834573106
 H          2.8041425387       -1.6990053622       -1.1398048867
 H          3.5880028319        0.6295789738       -1.2388752712
 H          2.3090734666        2.4014809775       -0.1111666974
 H          0.2519796041        1.8439266367        1.1107486966
  22
        -30.69850969
 N         -1.9047389966       -1.1738005523        0.5028278423
 C         -0.9129072454       -0.5898787051        1.4135257614
 C         -0.6525753448       -1.4871107319        2.6203665945
 C          0.3645372368       -0.2493349832        0.6808511315
 C          1.1030564982       -1.2365407506        0.0481218372
 C          2.2599001228       -0.9215914616       -0.6363006802
 C          2.6920338220        0.3872858496       -0.6971502350
 C          1.9654788583        1.3797402471       -0.0720862249
 C          0.8095717222        1.0630769925        0.6124250970
 Cl        -1.8453278958        1.2253778302       -1.8151222200
 H         -2.7508139462       -1.3921771463        1.0168062716
 H         -1.5524593440       -2.0604767562        0.1616155306
 H         -1.8631887456        0.2619286021       -0.8885125867
 H         -1.3419913079        0.3602001601        1.7723369546
 H         -1.5703021826       -1.6868499510        3.1742668773
 H          0.0649401916       -1.0328672167        3.3047994192
 H         -0.2443836351       -2.4466074957        2.3050478224
 H          0.7655372346       -2.2580652632        0.0914462463
 H          2.8247382146       -1.6987908002       -1.1254300951
 H          3.5941266073        0.6342464137       -1.2334582559
 H          2.2988138958        2.4038714797       -0.1210326882
 H          0.2397607702        1.8396800364        1.0945132153
  22
        -30.69771700
 N         -1.6828930129        1.3288942566       -0.2359105497
 C         -0.7006441673        1.2688985790        0.8566343005
 C         -1.2297886305        0.4456329438        2.0273508886
 C          0.6335182346        0.7444376946        0.3760498661
 C          0.7145618127       -0.4393668114       -0.3391354323
 C          1.9339605969       -0.9254051244       -0.7644167178
 C          3.0916906015       -0.2329540481       -0.4754321175
 C          3.0262738790        0.9449823816        0.2401519185
 C          1.8051751560        1.4294667455        0.6639907513
 Cl        -2.5019429014       -1.8070292048       -0.9417368189
 H         -1.2988061344        1.8701626556       -1.0023213485
 H         -2.5138434015        1.8190162993        0.0775269358
 H         -2.2128029142       -0.5308183297       -0.6659001670
 H         -0.5333803074        2.3008043640        1.2098801116
 H         -1.3969573022       -0.5866447654        1.7218143221
 H         -2.1789945082        0.8381791951        2.3932029599
 H         -0.5227972819        0.4331307819        2.8575389412
 H         -0.1869189312       -0.9824982009       -0.5630558119
 H          1.9814626519       -1.8468205103       -1.3221815556
 H          4.0451446048       -0.6120301102       -0.8065868128
 H          3.9297010464        1.4867122203        0.4698456609
 H          1.7555079152        2.3464570294        1.2269875521
  22
        -30.69626874
 N         -1.6813503479       -1.2754100156       -0.1481548160
 C         -0.7929136122       -0.9507493211        0.9746652191
 C         -0.6917507882       -2.1118566822        1.9629535944
 C          0.5522201175       -0.4709838355        0.4713432186
 C          1.6425103016       -1.3214187996        0.3580583345
 C          2.8504868900       -0.8609548235       -0.1268815863
 C          2.9833146877        0.4556882574       -0.5163323315
 C          1.9024288823        1.3079068411       -0.4279988321
 C          0.6960606464        0.8447132808        0.0561402064
 Cl        -2.4856521965        1.8321699436       -1.0388709822
 H         -2.5138981973       -1.7385121832        0.2007100665
 H         -1.2127678650       -1.9523562150       -0.7378464972
 H         -2.1735968191        0.5772171771       -0.6982950843
 H         -1.2518409303       -0.0980426085        1.5023398353
 H         -0.3513723471       -3.0179886239        1.4631598610
 H         -1.6598292227       -2.3376928371        2.4116972638
 H          0.0083786903       -1.8887258978        2.7686384864
 H          1.5461721799       -2.3533673392        0.6480686897
 H          3.6907901940       -1.5321144545       -0.2034932897
 H          3.9263272164        0.8153992334       -0.8954792035
 H          1.9974837807        2.3342479292       -0.7441996937
 H         -0.1553200298        1.5028889420        0.0914340529
  22
        -30.69552757
 N         -1.6759975052       -1.2471283010       -0.2444962786
 C         -0.7875168798       -1.0035833443        0.8993281274
 C         -0.7070689384       -2.2274906622        1.8106255817
 C          0.5643687119       -0.5038448491        0.4320308527
 C          1.6953696323       -1.3080872623        0.4314714288
 C          2.9075020376       -0.8234491617       -0.0183366437
 C          3.0058890019        0.4714887165       -0.4832016574
 C          1.8869270212        1.2774056477       -0.5044144278
 C          0.6768572545        0.7897962610       -0.0553655218
 Cl        -2.5226684332        1.9055278348       -0.8995002048
 H         -2.5100693710       -1.7309019300        0.0710892593
 H         -1.2086261499       -1.8838372040       -0.8784103110
 H         -2.2034677637        0.6299848617       -0.6547773914
 H         -1.2394243871       -0.1808752006        1.4782814368
 H         -0.3577883665       -3.0987139728        1.2574593596
 H         -1.6843932572       -2.4801819094        2.2235834918
 H         -0.0243126470       -2.0603287792        2.6443383107
 H          1.6297407492       -2.3228590970        0.7838197434
 H          3.7785306310       -1.4587800794       -0.0076951515
 H          3.9522689484        0.8500971959       -0.8345649109
 H          1.9558123210        2.2863829487       -0.8780991291
 H         -0.2014183212        1.4105796014       -0.1040420767
  22
        -30.69540792
 N         -1.5466986762       -0.8781400417        1.1124113678
 C         -0.8163261308        0.3855053993        1.2774193029
 C         -0.7625455364        0.8050505252        2.7457272842
 C          0.5444386350        0.3104140200        0.6144834383
 C          0.6202793083        0.2650622337       -0.7694627866
 C          1.8380865829        0.1826780207       -1.4127938267
 C          3.0042348343        0.1351825267       -0.6781578565
 C          2.9461755944        0.1642517831        0.6996487228
 C          1.7259490298        0.2472230701        1.3403417691
 Cl        -2.5275403097       -0.5427302142       -2.0503858336
 H         -2.3787435860       -0.8666918609        1.6927589066
 H         -0.9675919191       -1.6271879661        1.4718258456
 H         -2.1558161885       -0.7004939272       -0.7752946985
 H         -1.3872152475        1.1520403398        0.7271891833
 H         -0.2064839374        1.7341489405        2.8761416228
 H         -0.2819768221        0.0355570818        3.3492732686
 H         -1.7630209062        0.9542997313        3.1528230548
 H         -0.2891503782        0.2730760973       -1.3453567329
 H          1.8771517124        0.1493889239       -2.4897062285
 H          3.9569597064        0.0700286181       -1.1786629669
 H          3.8555317606        0.1209156459        1.2773122995
 H          1.6943392598        0.2620157239        2.4160736825
  22
        -30.69156917
 N         -1.0610651651       -1.4333590621       -2.6880303066
 C         -1.2152815760       -0.3807030180       -1.6811623209
 C         -2.3662047297       -0.6908259441       -0.7282595230
 C          0.0737374014       -0.1232034942       -0.9354460320
 C          0.7167884059       -1.1475207007       -0.2590518177
 C          1.8868026228       -0.9089126114        0.4336807256
 C          2.4280730108        0.3598439833        0.4587836831
 C          1.7979159816        1.3883279326       -0.2109711946
 C          0.6283708069        1.1480369272       -0.9034022204
 Cl        -0.8524614801        0.7947898602        2.5744620982
 H         -0.9027577539       -2.3224120851       -2.2315470968
 H         -0.2453486408       -1.2477559055       -3.2586669845
 H         -0.1213471379        0.5289912463        1.5103482761
 H         -1.4694019129        0.5383031371       -2.2345667536
 H         -2.5336513352        0.1251275690       -0.0241570087
 H         -2.1530234310       -1.5884620556       -0.1485332620
 H         -3.2925095242       -0.8662326110       -1.2754106485
 H          0.2947317317       -2.1381290629       -0.2761558958
 H          2.3791222604       -1.7152032378        0.9534899125
 H          3.3431574559        0.5465060947        0.9977505200
 H          2.2207041880        2.3801529810       -0.1955919125
 H          0.1372970116        1.9515269562       -1.4267836904
  22
        -30.69073974
 N         -2.0902546724       -1.0974706374       -0.3858707294
 C         -0.9307107658       -1.7115996664        0.2706276619
 C         -0.6868101518       -3.1312279111       -0.2316297501
 C          0.2956249052       -0.8386195973        0.1350054580
 C          0.9089914583       -0.3056569791        1.2598157563
 C          1.9704741937        0.5676417628        1.1347335654
 C          2.4366160788        0.9133342324       -0.1169181381
 C          1.8430555003        0.3802311927       -1.2425587396
 C          0.7787545861       -0.4897567156       -1.1163066976
 Cl        -1.4520840981        2.2874969284        0.1570981071
 H         -1.9993346316       -1.1912707825       -1.3894395668
 H         -2.0811251964       -0.1011268027       -0.1938641616
 H         -0.3414967035        1.5793547655        0.2495453871
 H         -1.1812729329       -1.7664317605        1.3428574687
 H         -0.4341825994       -3.1261663515       -1.2914121958
 H         -1.5764477126       -3.7496717967       -0.1093329600
 H          0.1369742778       -3.6067118825        0.3017188973
 H          0.5408554638       -0.5693204294        2.2373744886
 H          2.4382260320        0.9770305047        2.0159549047
 H          3.2678556989        1.5931810471       -0.2150663083
 H          2.2081120576        0.6462179353       -2.2216185146
 H          0.3052790880       -0.8925159942       -1.9957654598
  22
        -30.69073422
 N         -2.1015390195       -0.7931558077        0.9640241276
 C         -0.9321620649       -0.3903461529        1.7487970858
 C         -0.6107689596       -1.3993505296        2.8479255062
 C          0.2596415339       -0.1339069621        0.8553337020
 C          0.7887490918       -1.1479508833        0.0728069593
 C          1.8655453075       -0.9084916064       -0.7571494592
 C          2.4267706003        0.3505654895       -0.8146234416
 C          1.9101666737        1.3685320212       -0.0397555518
 C          0.8335938488        1.1275520968        0.7896497211
 Cl        -1.3994182131        0.8552416137       -2.2864044385
 H         -2.8917514033       -0.9711156374        1.5719443591
 H         -1.9057401597       -1.6583209665        0.4768622232
 H         -0.6215196312        0.5178901799       -1.2764683745
 H         -1.1934471469        0.5701593193        2.2225371467
 H         -1.4558784863       -1.5367812853        3.5230866287
 H          0.2482209866       -1.0807852485        3.4397822323
 H         -0.3725719804       -2.3719122610        2.4190043333
 H          0.3530537005       -2.1319112267        0.1171957862
 H          2.2682099843       -1.7061628664       -1.3605708437
 H          3.2673947484        0.5383503099       -1.4630571103
 H          2.3474880190        2.3531763010       -0.0822898812
 H          0.4315996277        1.9231324052        1.3947621903
  22
        -30.69051216
 N         -1.0221788888       -1.4541339486       -2.6990087912
 C         -1.2129546443       -0.4283793580       -1.6705618900
 C         -2.3470338606       -0.7883702055       -0.7142420322
 C          0.0736106297       -0.1456269144       -0.9286537358
 C          0.7174879457       -1.1476060194       -0.2201555244
 C          1.8861250648       -0.8860495647        0.4664645458
 C          2.4261667848        0.3833717193        0.4524126764
 C          1.7962708323        1.3894120266       -0.2508420951
 C          0.6279681910        1.1261843351       -0.9369308206
 Cl        -0.8339668041        0.8705873400        2.5676621568
 H         -1.8969980257       -1.6490502830       -3.1710735271
 H         -0.7220847557       -2.3192178546       -2.2681634011
 H         -0.1010981000        0.5721075453        1.5134901416
 H         -1.4876763965        0.4958699182       -2.2049339453
 H         -2.1157926094       -1.7043971808       -0.1716234694
 H         -3.2832548419       -0.9510986574       -1.2490550724
 H         -2.5104144021       -0.0014785068        0.0228240246
 H          0.2981037284       -2.1394702424       -0.2083654369
 H          2.3787294591       -1.6754227693        1.0113978838
 H          3.3407772126        0.5874774804        0.9858116769
 H          2.2189536175        2.3812545426       -0.2677316800
 H          0.1389580872        1.9118301065       -1.4885449505
  22
        -30.69050104
 N         -1.3269531022       -0.8590163905       -2.7146759940
 C         -1.3364315767        0.0662337578       -1.5789816945
 C         -2.4648423399       -0.2633233649       -0.6061654814
 C          0.0052753401        0.1147282455       -0.8850302255
 C          0.5712283186       -1.0346578281       -0.3585572843
 C          1.7948638718       -0.9897117053        0.2777882161
 C          2.4681607846        0.2082870990        0.3961640704
 C          1.9150476117        1.3604823334       -0.1228809641
 C          0.6913975335        1.3135215231       -0.7591690263
 Cl        -0.5857631803        0.1143949426        2.4529913260
 H         -1.2208642438       -1.8076367263       -2.3788874248
 H         -0.5280236494       -0.6683804550       -3.3070457932
 H         -1.2390992055        0.2466976912        3.5909355075
 H         -1.5305383090        1.0669441631       -1.9988325162
 H         -2.3137896395       -1.2470275659       -0.1628443010
 H         -3.4301709205       -0.2761707549       -1.1129634426
 H         -2.5139990237        0.4610863365        0.2074804796
 H          0.0444912074       -1.9697556768       -0.4452408146
 H          2.2231809745       -1.8912082532        0.6855098467
 H          3.4232685763        0.2444391278        0.8950732495
 H          2.4382080810        2.2986330900       -0.0300896829
 H          0.2588152959        2.2139626051       -1.1621202147
  22
        -30.69046173
 N         -1.2394750277       -1.4127038936       -2.5269862995
 C         -1.3341917306       -0.4129454523       -1.4605162418
 C         -2.3799837979       -0.8091825339       -0.4223692469
 C          0.0109716007       -0.1415042820       -0.8271200647
 C          0.7345629030       -1.1648821794       -0.2371875981
 C          1.9622769823       -0.9165394206        0.3424677059
 C          2.4815860617        0.3613730660        0.3390602003
 C          1.7706220583        1.3892670093       -0.2446508487
 C          0.5434162373        1.1389518132       -0.8236096945
 Cl        -0.6804306163        0.8482641107        2.2556391241
 H         -1.0001892981       -2.3117757701       -2.1292145151
 H         -0.4908121930       -1.1668031152       -3.1631286943
 H         -1.3417614978        1.1165658568        3.3645612153
 H         -1.6698155548        0.5202023817       -1.9421452836
 H         -2.5021145926       -0.0351911233        0.3361952347
 H         -2.0866547539       -1.7266658395        0.0869454996
 H         -3.3489840832       -0.9879050823       -0.8886621931
 H          0.3287734741       -2.1622105233       -0.2302896482
 H          2.5146481856       -1.7215505950        0.7998867513
 H          3.4397293121        0.5566613071        0.7932422557
 H          2.1728680739        2.3895861778       -0.2463918335
 H         -0.0126551567        1.9428832761       -1.2761393968
  22
        -30.69040913
 N         -1.1795102307       -1.2503956524       -2.6274187353
 C         -1.1742221341       -0.0648268107       -1.7630414074
 C         -2.3783494386       -0.0712789945       -0.8261063285
 C          0.1160217523        0.0371716386       -0.9843701740
 C          0.7272837294       -1.1034878293       -0.4910829240
 C          1.8869291763       -1.0166264641        0.2526548363
 C          2.4459986279        0.2172344387        0.5154176401
 C          1.8436024036        1.3616100696        0.0337726884
 C          0.6842195566        1.2722656840       -0.7099984897
 Cl        -0.8461011484        0.3058997843        2.6364168081
 H         -0.3874704848       -1.2336690288       -3.2586512317
 H         -2.0213413815       -1.2820246336       -3.1894096142
 H         -0.1024356385        0.2126944274        1.5520785827
 H         -1.2373801388        0.8258764592       -2.4107643759
 H         -2.3950612253        0.8140261216       -0.1893180052
 H         -2.3441406620       -0.9459738041       -0.1771071294
 H         -3.3155671162       -0.1098018601       -1.3815131375
 H          0.2852556211       -2.0627732720       -0.7015849829
 H          2.3563816046       -1.9126534594        0.6259708017
 H          3.3530278051        0.2869797144        1.0943214384
 H          2.2793560097        2.3265778537        0.2378231381
 H          0.2099982514        2.1651330513       -1.0823583277
  22
        -30.69040018
 N         -1.3267657732       -0.8683187123       -2.6952360262
 C         -1.3325552397        0.0536869603       -1.5569208523
 C         -2.4517448516       -0.2849242048       -0.5765601659
 C          0.0144365053        0.1077365358       -0.8735762035
 C          0.5898493677       -1.0394595089       -0.3526182679
 C          1.8184643758       -0.9895572598        0.2737558616
 C          2.4875212962        0.2112989263        0.3873287580
 C          1.9251301331        1.3613240295       -0.1265573494
 C          0.6964706379        1.3093673569       -0.7527395973
 Cl        -0.6229493433        0.1358503386        2.4223831771
 H         -1.2132985776       -1.8172152433       -2.3626590802
 H         -0.5331108517       -0.6719637874       -3.2928023476
 H         -1.2842284218        0.2689864418        3.5555913397
 H         -1.5355820677        1.0544541305       -1.9723860839
 H         -2.2901542703       -1.2675989485       -0.1346614731
 H         -3.4203789907       -0.3050054929       -1.0767464812
 H         -2.5010653058        0.4387911521        0.2376851382
 H          0.0665729117       -1.9768275636       -0.4356618981
 H          2.2540532659       -1.8893922857        0.6774312048
 H          3.4465509257        0.2513380273        0.8783642734
 H          2.4450010718        2.3016720990       -0.0375884833
 H          0.2566247637        2.2081374298       -1.1515356124
