22
 energy: -30.704432557619 gnorm: 0.000592470588 xtb: 6.5.1 (fef0646)
N            1.01242801169254       -0.61509695731575       -0.16105192235127
C            2.44403198346073       -0.31947558080840       -0.03230404250996
C            3.26893093367533       -1.55578518736053        0.34276929680858
C            2.93488009876601        0.29860475814967       -1.32146477023590
C            3.43370070851502        1.59360355198458       -1.33090057876054
C            3.87593021932500        2.17013973665485       -2.50816330420357
C            3.82133256511689        1.45755429010535       -3.69332842322731
C            3.32469522740119        0.16560667741944       -3.69399640907145
C            2.88541889917667       -0.40964419160870       -2.51563708549311
Cl          -0.36689955032801        1.84540857813864       -0.95264672302411
H            0.63503942293315       -0.97974432843916        0.70707161127883
H            0.85003789914501       -1.29204354349009       -0.89936663836237
H            0.27177230057107        0.69723634031893       -0.56932711150705
H            2.53536794283585        0.42188734366208        0.76907765185116
H            3.18771487633109       -2.32229847934250       -0.42526435783739
H            2.92256625600172       -1.97119708302732        1.28789934083513
H            4.31661062171232       -1.28599877940245        0.44686957120501
H            3.46788327642743        2.15790761165941       -0.41072601821411
H            4.25639414794459        3.18071570482384       -2.50132942351577
H            4.16109420124605        1.90777618065784       -4.61423387809830
H            3.27783703860880       -0.39597675804759       -4.61535939849906
H            2.50192291944147       -1.42012988473191       -2.53582738706838
