  21
  -30.061022479999998        7.1034422131551686E-002 !mtd8
 N         -2.9674253653        0.8177966400       -1.0729039761
 C         -2.9615248508       -0.4356993038       -0.2601661173
 C         -2.0358774195       -0.3567718965        0.9550130765
 C         -0.5885291106       -0.2114508173        0.5872647757
 C          0.0743645724        1.0041259643        0.7436126253
 C          1.4001185186        1.1366742228        0.3887390173
 C          2.0995647290        0.0527793642       -0.1338973973
 F          3.3706659666        0.1792119934       -0.4798239625
 C          1.4446287697       -1.1650225862       -0.2898768433
 C          0.1186589350       -1.2923582325        0.0664484219
 H         -3.5757733696        0.7279876687       -1.8939050620
 H         -2.0220751309        1.0389637982       -1.4040339118
 H         -3.3027580576        1.6100597524       -0.5144941990
 H         -2.6591533445       -1.2731433120       -0.8996345956
 H         -3.9885364960       -0.6562802535        0.0576086012
 H         -2.1504354239       -1.2482618080        1.5828601408
 H         -2.3355969108        0.4842650328        1.5884675281
 H         -0.4541029250        1.8471956849        1.1563876629
 H          1.9184485824        2.0734348966        0.5090573613
 H          1.9964842158       -1.9985747746       -0.6914129406
 H         -0.3779235098       -2.2412741838       -0.0510231455
  21
  -30.061018300000001        7.0720912686001933E-002 !gc
 N         -2.9619662206        0.8067955653       -1.0821124304
 C         -2.9617004158       -0.4381704452       -0.2564114444
 C         -2.0365182425       -0.3501692447        0.9584578345
 C         -0.5891691462       -0.2073850736        0.5897279012
 C          0.0779608436        1.0049534830        0.7529630300
 C          1.4036428589        1.1354552441        0.3972049511
 C          2.0986864686        0.0528384413       -0.1338368979
 F          3.3689808079        0.1781109354       -0.4832145708
 C          1.4396956469       -1.1619480935       -0.2961786385
 C          0.1139797821       -1.2874265424        0.0617215975
 H         -2.0147283609        1.0223153061       -1.4115566213
 H         -3.2976059082        1.6060835648       -0.5339066664
 H         -3.5672981539        0.7090559392       -1.9045401969
 H         -2.6618639526       -1.2829539765       -0.8874275986
 H         -3.9896960920       -0.6519540264        0.0628872020
 H         -2.1510223532       -1.2370276930        1.5928508823
 H         -2.3366408988        0.4957071947        1.5853249799
 H         -0.4471468539        1.8470518341        1.1719512404
 H          1.9253438318        2.0695416159        0.5235652687
 H          1.9881268308       -1.9946714973       -0.7040936986
 H         -0.3854764441       -2.2342734661       -0.0600535541
  21
  -30.061013970000001        7.0397611864610757E-002 !gc
 N         -2.9641162640        0.8049865653       -1.0826279438
 C         -2.9624465479       -0.4388934068       -0.2552573622
 C         -2.0361609382       -0.3488311578        0.9586144154
 C         -0.5890510676       -0.2063565780        0.5887918651
 C          0.0788235499        1.0054329336        0.7531754336
 C          1.4045798494        1.1354895328        0.3975701823
 C          2.0991352890        0.0528551154       -0.1340561379
 F          3.3702153757        0.1770115531       -0.4809439476
 C          1.4392950291       -1.1612718572       -0.2979013149
 C          0.1134792468       -1.2862963143        0.0597758803
 H         -3.2987542134        1.6049584101       -0.5351111211
 H         -3.5708678334        0.7061088353       -1.9038467619
 H         -2.0174230398        1.0200910683       -1.4139940454
 H         -2.6630619671       -1.2844451858       -0.8854243841
 H         -3.9900083620       -0.6526308682        0.0654376395
 H         -2.1500186944       -1.2346397909        1.5945849650
 H         -2.3360027960        0.4979961383        1.5843264754
 H         -0.4458243718        1.8473940022        1.1729992126
 H          1.9269114819        2.0691026752        0.5247846459
 H          1.9873293897       -1.9938885369       -0.7065574571
 H         -0.3865098171       -2.2327446722       -0.0628535684
  21
  -30.061006490000000        6.9842593295659727E-002 !md4
 N         -2.9447994575       -0.9175604260        1.0447531844
 C         -2.9700759672        0.3633117486        0.2762054943
 C         -2.0441156666        0.3503155621       -0.9412413396
 C         -0.5936462767        0.2217057573       -0.5798474730
 C          0.0954054479        1.3007195331       -0.0309492662
 C          1.4236233042        1.1868899975        0.3206996788
 C          2.0994865988       -0.0149659595        0.1316907755
 F          3.3734998293       -0.1280181850        0.4714160862
 C          1.4183157357       -1.0965100450       -0.4184898503
 C          0.0899083849       -0.9774434850       -0.7688072600
 H         -3.2575849623       -1.6996024308        0.4595755759
 H         -3.5576215497       -0.8712967367        1.8660222574
 H         -1.9947883391       -1.1246843445        1.3717690305
 H         -2.6872423838        1.1844941577        0.9450690849
 H         -4.0024474739        0.5703923940       -0.0333076478
 H         -2.1783508725        1.2624325736       -1.5345850449
 H         -2.3263168800       -0.4721188986       -1.6063816308
 H         -0.4172038265        2.2374596471        0.1122796219
 H          1.9614320782        2.0188390351        0.7440180720
 H          1.9524159347       -2.0207171412       -0.5638557239
 H         -0.4242326358       -1.8182246055       -1.2037098391
  21
  -30.061003350000000        6.9610910213262170E-002 !mtd8
 N         -2.9438982073       -0.8979161549        1.0612462478
 C         -2.9705203748        0.3682710401        0.2687783302
 C         -2.0440472778        0.3335839404       -0.9478509754
 C         -0.5937153096        0.2112969852       -0.5836797387
 C          0.0938177316        1.2982109978       -0.0486540616
 C          1.4219521164        1.1905192232        0.3052378599
 C          2.0993247852       -0.0129017612        0.1322771328
 F          3.3733973637       -0.1198986536        0.4737349108
 C          1.4197019802       -1.1023427007       -0.4040593375
 C          0.0913480943       -0.9894221926       -0.7566024512
 H         -3.5562500072       -0.8366615326        1.8817743737
 H         -1.9935389059       -1.0981595368        1.3915455117
 H         -3.2564012402       -1.6911309156        0.4910152567
 H         -2.6890065526        1.2021989813        0.9222473102
 H         -4.0030188409        0.5682497671       -0.0449530349
 H         -2.1779561554        1.2350025667       -1.5573997385
 H         -2.3260794189       -0.5005591911       -1.5983190940
 H         -0.4199030652        2.2361869792        0.0819120929
 H          1.9585668728        2.0285658539        0.7179114607
 H          1.9549877014       -2.0277081260       -0.5371779359
 H         -0.4215431392       -1.8364243429       -1.1807857530
  21
  -30.061001709999999        6.9490209451939705E-002 !gc
 N         -2.9438259147       -0.8862643165        1.0706680441
 C         -2.9705928037        0.3713043086        0.2645973080
 C         -2.0439944879        0.3236226075       -0.9514974745
 C         -0.5936905750        0.2051185678       -0.5859305543
 C          0.0929676317        1.2966365315       -0.0592260934
 C          1.4210869590        1.1926316278        0.2958195810
 C          2.0993455331       -0.0116172980        0.1323677060
 F          3.3731667972       -0.1153105157        0.4757800144
 C          1.4206814867       -1.1055969933       -0.3958822844
 C          0.0923091340       -0.9963813659       -0.7495237293
 H         -1.9934025509       -1.0831153450        1.4025318953
 H         -3.2568038520       -1.6855327455        0.5092049718
 H         -3.5557577280       -0.8160082728        1.8908878163
 H         -2.6892852368        1.2122698008        0.9090719397
 H         -4.0030919712        0.5677451006       -0.0513571103
 H         -2.1777702939        1.2184994451       -1.5706404200
 H         -2.3260600286       -0.5173984314       -1.5930279892
 H         -0.4214262885        2.2352450490        0.0639121314
 H          1.9569674507        2.0341906356        0.7022538348
 H          1.9566939386       -2.0315444727       -0.5218356227
 H         -0.4198574824       -1.8470157373       -1.1672705174
  21
  -30.060995230000000        6.9015337939974344E-002 !mtd8
 N         -2.9443643569        0.7206434744        1.1556167994
 C         -2.9622844666       -0.4525505646        0.2308896966
 C         -2.0412047762       -0.2763116048       -0.9774387832
 C         -0.5924698164       -0.1627572232       -0.6045170105
 C          0.0684633385        1.0627467611       -0.6569604567
 C          1.3948039644        1.1662650713       -0.2949738389
 C          2.0966483027        0.0425250754        0.1313626489
 F          3.3682941276        0.1406911289        0.4844536720
 C          1.4436537768       -1.1852231116        0.1832229193
 C          0.1172235154       -1.2835764772       -0.1804962546
 H         -3.5595453629        0.5694964126        1.9623557029
 H         -3.2580017126        1.5689346486        0.6719230589
 H         -1.9961366286        0.8884244273        1.5094368201
 H         -3.9938628622       -0.6276211955       -0.1000275069
 H         -2.6702439255       -1.3493962551        0.7897057284
 H         -2.3417580858        0.6140705043       -1.5390049311
 H         -2.1598292067       -1.1134426873       -1.6754908683
 H         -0.4621259208        1.9374725577       -0.9942669013
 H          1.9116570133        2.1105485111       -0.3365447518
 H          1.9971296876       -2.0493154603        0.5112327283
 H         -0.3778397498       -2.2397962367       -0.1439281628
  21
  -30.060994990000001        6.8997812563704658E-002 !gc
 N         -2.9621295942        0.0249542855       -1.3661965125
 C         -2.9704291222        0.4466522030        0.0670631931
 C         -2.0351268899       -0.3887715062        0.9428435144
 C         -0.5879557070       -0.2330526532        0.5789236200
 C          0.1031790217        0.9285136298        0.9156854219
 C          1.4287341715        1.0878982546        0.5717864035
 C          2.0996485261        0.0851787693       -0.1220275628
 F          3.3710909810        0.2371436228       -0.4563988261
 C          1.4161094454       -1.0788023356       -0.4603630273
 C          0.0904412522       -1.2336133662       -0.1135372644
 H         -2.0161861241        0.0913765599       -1.7573735220
 H         -3.5795019224        0.6165733083       -1.9329386091
 H         -3.2787503692       -0.9459976598       -1.4615005876
 H         -3.9984943357        0.3898300719        0.4468514316
 H         -2.6858880336        1.5036237425        0.1285568916
 H         -2.3150963993       -1.4447264566        0.8729857305
 H         -2.1615307306       -0.1244877773        1.9994167136
 H         -0.4057305853        1.7073885651        1.4589440365
 H          1.9682903316        1.9832903604        0.8320092247
 H          1.9462506910       -1.8502015083       -0.9937050547
 H         -0.4253153786       -2.1436218544       -0.3710253487
  21
  -30.060993180000001        6.8865785278028252E-002 !mtd11
 N         -2.9472329941        0.7221385399        1.1538150533
 C         -2.9627978344       -0.4525000842        0.2308819794
 C         -2.0407761673       -0.2770285279       -0.9768449699
 C         -0.5921990367       -0.1630807714       -0.6033570737
 C          0.0687416524        1.0623863785       -0.6565620718
 C          1.3953964043        1.1659103272       -0.2957184269
 C          2.0974759059        0.0423083993        0.1305871459
 F          3.3685995770        0.1410522774        0.4853986548
 C          1.4445536139       -1.1854568370        0.1829291303
 C          0.1178116363       -1.2838325219       -0.1796694191
 H         -3.2586380913        1.5697522987        0.6677318892
 H         -2.0001327771        0.8897789912        1.5106818700
 H         -3.5653888211        0.5726899829        1.9586830342
 H         -3.9938485689       -0.6291879582       -0.1008457746
 H         -2.6703573228       -1.3481946909        0.7913315985
 H         -2.3410580477        0.6129134982       -1.5392545053
 H         -2.1589230676       -1.1146019459       -1.6744489383
 H         -0.4619855535        1.9370152198       -0.9938944452
 H          1.9122523070        2.1101640265       -0.3379435367
 H          1.9984228202       -2.0495967811        0.5101536918
 H         -0.3769796340       -2.2402034155       -0.1433699506
  21
  -30.060990010000001        6.8635163564627497E-002 !mtd7
 N         -2.9430136131        0.7183649502        1.1578330260
 C         -2.9622098671       -0.4528013856        0.2305474633
 C         -2.0415335376       -0.2746582726       -0.9778183074
 C         -0.5926156859       -0.1618886187       -0.6053670377
 C          0.0687609121        1.0633975243       -0.6574800040
 C          1.3951295995        1.1663415840       -0.2954319519
 C          2.0965441039        0.0423547637        0.1309582886
 F          3.3674998154        0.1404673420        0.4865465482
 C          1.4433088130       -1.1853102669        0.1817772184
 C          0.1168670338       -1.2831100479       -0.1820719217
 H         -1.9946741944        0.8841653250        1.5121063757
 H         -3.5585801216        0.5661221369        1.9641988386
 H         -3.2556268347        1.5681343969        0.6760655513
 H         -3.9940574090       -0.6262957226       -0.1003762446
 H         -2.6706871649       -1.3510864292        0.7873301324
 H         -2.3421923193        0.6167260438       -1.5377348276
 H         -2.1605655590       -1.1106023700       -1.6772205005
 H         -0.4614254590        1.9383937297       -0.9947292903
 H          1.9122875828        2.1104704714       -0.3367703273
 H          1.9965167992       -2.0497598344        0.5093009573
 H         -0.3784096919       -2.2392313758       -0.1458228222
  21
  -30.060982780000000        6.8112056806641771E-002 !gc
 N         -2.9546077342        0.0424204586       -1.3660697885
 C         -2.9718190474        0.4442437367        0.0727856173
 C         -2.0356556357       -0.3979677364        0.9410143312
 C         -0.5887438783       -0.2385538297        0.5775872514
 C          0.0977187579        0.9274450210        0.9084655313
 C          1.4229789536        1.0898933756        0.5648253917
 C          2.0984400903        0.0856483910       -0.1223531773
 F          3.3695886536        0.2405631048       -0.4565312420
 C          1.4197308565       -1.0829942651       -0.4542872506
 C          0.0942519375       -1.2406944256       -0.1080827034
 H         -3.2656599051       -0.9286619456       -1.4759568878
 H         -2.0069809086        0.1186298017       -1.7516044381
 H         -3.5721337095        0.6387328966       -1.9277568637
 H         -4.0011723347        0.3765986611        0.4472659817
 H         -2.6934448304        1.5017847217        0.1499612177
 H         -2.3152831440       -1.4533906251        0.8620774398
 H         -2.1616113930       -0.1427602285        1.9998633834
 H         -0.4146282523        1.7075187972        1.4467374853
 H          1.9587967456        1.9889566684        0.8200832353
 H          1.9534507172       -1.8558013593       -0.9819983683
 H         -0.4177545160       -2.1541921284       -0.3607195631
  21
  -30.060976549999999        6.7664501291320622E-002 !gc
 N         -2.9501208146        0.0569135066       -1.3656108723
 C         -2.9732740576        0.4424077287        0.0776042000
 C         -2.0359495027       -0.4055122627        0.9389352566
 C         -0.5892711531       -0.2428997396        0.5758452445
 C          0.0933972583        0.9266038486        0.9021275403
 C          1.4185894129        1.0913534256        0.5592880204
 C          2.0979374356        0.0857956794       -0.1221234899
 F          3.3686513323        0.2434488299       -0.4566973950
 C          1.4232677469       -1.0866687614       -0.4487583694
 C          0.0977358198       -1.2464749378       -0.1037401808
 H         -3.5691791848        0.6561842269       -1.9223144004
 H         -3.2556369294       -0.9145954571       -1.4870436534
 H         -2.0018279144        0.1421018674       -1.7475463629
 H         -4.0033588441        0.3661120851        0.4483782526
 H         -2.6998330623        1.5001976882        0.1674619880
 H         -2.3152452635       -1.4604305640        0.8521746796
 H         -2.1613388072       -0.1582238739        1.9997208009
 H         -0.4217917750        1.7076574392        1.4362277096
 H          1.9513516569        1.9933412486        0.8105968030
 H          1.9601295658       -1.8607590068       -0.9713860076
 H         -0.4111199632       -2.1628537251       -0.3523061488
  21
  -30.060119709999999        2.7326529893070248E-002 !md6
 N         -4.2365323255       -0.0680463280        0.1962433499
 C         -2.7723043009       -0.1745367849        0.4801661773
 C         -1.9029820254        0.2650813168       -0.6953264936
 C         -0.4335771809        0.1549944546       -0.4098559470
 C          0.2717394739        1.2332541121        0.1199865662
 C          1.6158350942        1.1254202293        0.4074035645
 C          2.2896433821       -0.0704725468        0.1765967662
 F          3.5802658029       -0.1759304108        0.4496969699
 C          1.5891171762       -1.1539135305       -0.3451410415
 C          0.2451751880       -1.0407849368       -0.6320073824
 H         -4.4908993357        0.8991310508       -0.0242175202
 H         -4.7933282590       -0.3686230451        1.0020130385
 H         -4.4924673822       -0.6536540032       -0.6041002240
 H         -2.5299687036       -1.2088142416        0.7514517742
 H         -2.5292625726        0.4272498400        1.3639521246
 H         -2.1435554280        1.2973159140       -0.9692756836
 H         -2.1454388323       -0.3310478583       -1.5810406051
 H         -0.2421047819        2.1622938859        0.3034327611
 H          2.1675666294        1.9571186060        0.8129257854
 H          2.1201665376       -2.0749006810       -0.5188226501
 H         -0.2888746630       -1.8845558371       -1.0365978002
  21
  -30.060114519999999        2.7176863101116770E-002 !gc
 N         -4.2356820053       -0.0609203565        0.2014711579
 C         -2.7710773268       -0.1653938469        0.4840841579
 C         -1.9032259717        0.2546735535       -0.6996788925
 C         -0.4335207036        0.1489247437       -0.4142544990
 C          0.2697351108        1.2314792402        0.1094294366
 C          1.6136798776        1.1273020475        0.3988702955
 C          2.2894568413       -0.0690235906        0.1762444253
 F          3.5791157250       -0.1719920584        0.4548878045
 C          1.5910998399       -1.1565343031       -0.3399162845
 C          0.2470942051       -1.0473482650       -0.6280383799
 H         -4.7912776039       -0.3494893624        1.0123784021
 H         -4.4939748414       -0.6573733673       -0.5901174489
 H         -4.4895790132        0.9034286164       -0.0319665077
 H         -2.5299324301       -1.1957638044        0.7708696411
 H         -2.5255084741        0.4497097876        1.3579363080
 H         -2.1437320786        1.2822819899       -0.9905201898
 H         -2.1469741947       -0.3557835568       -1.5751721510
 H         -0.2456905008        2.1607801483        0.2869972315
 H          2.1637353114        1.9621677633        0.8001530230
 H          2.1233895879       -2.0782021908       -0.5060925021
 H         -0.2858523074       -1.8951985742       -1.0255103413
  21
  -30.060111859999999        2.7100473275066372E-002 !mtd2
 N         -4.2358017396       -0.0440140718        0.2071657747
 C         -2.7709801427       -0.1274164226        0.4959501345
 C         -1.9032868106        0.2216863427       -0.7107127353
 C         -0.4335982616        0.1279130718       -0.4209860895
 C          0.2628546201        1.2229707937        0.0854228893
 C          1.6066799786        1.1308777818        0.3795088924
 C          2.2893600090       -0.0653102308        0.1782215609
 F          3.5796909094       -0.1557106130        0.4580701401
 C          1.5977724629       -1.1652745086       -0.3203636275
 C          0.2537427894       -1.0683135870       -0.6127118828
 H         -4.4949038074       -0.6974807709       -0.5376848807
 H         -4.4899400838        0.9007256605       -0.0958430993
 H         -4.7910092759       -0.2717966732        1.0373935918
 H         -2.5275087175       -1.1377524172        0.8453209455
 H         -2.5272087661        0.5406289512        1.3305020406
 H         -2.1405001422        1.2318059885       -1.0598345812
 H         -2.1502626373       -0.4371770001       -1.5493530739
 H         -0.2578337973        2.1524834418        0.2456771654
 H          2.1514403100        1.9753618605        0.7676710664
 H          2.1353651766       -2.0866860813       -0.4700910991
 H         -0.2739040394       -1.9259448376       -0.9960241038
  21
  -30.060103580000000        2.6864060125344608E-002 !gc
 N         -4.2095009535        0.1681533449       -0.4842107812
 C         -2.7265004082        0.2237550919       -0.6684776486
 C         -1.9511292735       -0.1696459173        0.5863268440
 C         -0.4635810866       -0.1182401583        0.3931125133
 C          0.2406027007        1.0640413526        0.6096076949
 C          1.6025246491        1.1226443928        0.4037592922
 C          2.2965242941       -0.0030918795       -0.0303002066
 F          3.6038738585        0.0509928640       -0.2281151310
 C          1.5980046282       -1.1855691503       -0.2553301696
 C          0.2357177392       -1.2390901394       -0.0484835920
 H         -4.5074299931       -0.7804591634       -0.2382589030
 H         -4.6988606664        0.4442722787       -1.3412073545
 H         -4.5043050936        0.7976653592        0.2682136362
 H         -2.4373415780        1.2352420930       -0.9773096950
 H         -2.4398386612       -0.4322645985       -1.4989530196
 H         -2.2416392816       -1.1765087597        0.9028079981
 H         -2.2314285146        0.4851312390        1.4177810360
 H         -0.2885072677        1.9409603499        0.9440805046
 H          2.1527724918        2.0333200555        0.5720280288
 H          2.1448380110       -2.0501168813       -0.5930818415
 H         -0.2971361405       -2.1582621470       -0.2274581053
  21
  -30.060102700000002        2.6839055648765653E-002 !gc
 N         -4.2096611290        0.1638400021       -0.4848325519
 C         -2.7268175910        0.2276966804       -0.6675584146
 C         -1.9511002034       -0.1693051273        0.5859328739
 C         -0.4635567935       -0.1178847273        0.3927983107
 C          0.2408538513        1.0640144647        0.6105839073
 C          1.6028453877        1.1224312932        0.4050717160
 C          2.2966459001       -0.0030653657       -0.0299619274
 F          3.6039185355        0.0510896543       -0.2284165379
 C          1.5979143306       -1.1852064321       -0.2560310983
 C          0.2355883936       -1.2385523799       -0.0494913057
 H         -4.6999281984        0.4412198211       -1.3406386156
 H         -4.5081884996        0.7884593740        0.2700956233
 H         -4.5029320466       -0.7874353712       -0.2435322383
 H         -2.4420836950        1.2420780975       -0.9709285246
 H         -2.4363478666       -0.4226430603       -1.5011825906
 H         -2.2417767447       -1.1771212059        0.8992099206
 H         -2.2311593513        0.4827472503        1.4195822107
 H         -0.2880670327        1.9407128324        0.9459275259
 H          2.1533218482        2.0327850668        0.5743422093
 H          2.1446286402       -2.0497012876       -0.5941311227
 H         -0.2974628661       -2.1574590245       -0.2292381677
  21
  -30.060097480000000        2.6691211393739787E-002 !md7
 N         -4.2100905236        0.1519980985       -0.4875824741
 C         -2.7274050921        0.2297127288       -0.6666373271
 C         -1.9509508851       -0.1641840159        0.5873947058
 C         -0.4634959300       -0.1140442186        0.3931556628
 C          0.2434124063        1.0654826963        0.6156989295
 C          1.6054596540        1.1218775196        0.4098968639
 C          2.2967787109       -0.0032001667       -0.0302019631
 F          3.6043502243        0.0486911509       -0.2272713761
 C          1.5954351997       -1.1827469315       -0.2616295119
 C          0.2331131288       -1.2341052771       -0.0546297697
 H         -4.5152626010        0.7659232597        0.2733584909
 H         -4.4963312270       -0.8041564672       -0.2569394657
 H         -4.7006509960        0.4345964246       -1.3416960651
 H         -2.4506180981        1.2473498251       -0.9665362313
 H         -2.4296314769       -0.4158174717       -1.5014499526
 H         -2.2415485531       -1.1711374690        0.9034120244
 H         -2.2303694348        0.4900166316        1.4195989603
 H         -0.2835011175        1.9418754960        0.9549870525
 H          2.1579464094        2.0302511565        0.5832064801
 H          2.1401488805       -2.0468479991       -0.6039656244
 H         -0.3020366248       -2.1510497784       -0.2381404235
  21
  -30.058218570000001        3.6549465903311998E-003 !mtd1
 N         -4.2857427197       -0.2047884368       -0.2887328580
 C         -2.8284306137       -0.5183673608       -0.4192114351
 C         -1.9331517021        0.5281896886        0.2430431496
 C         -0.4495719031        0.2837570585        0.1548212169
 C          0.4179635894        1.1981595520        0.7503512267
 C          1.7845615570        1.0244404592        0.6977050494
 C          2.3268210167       -0.0766986072        0.0428258256
 F          3.6381014845       -0.2477547796       -0.0101868296
 C          1.4706612109       -0.9954736145       -0.5555064428
 C          0.1043068244       -0.8162464476       -0.4992068599
 H         -4.5028256387        0.6962889271       -0.7249566771
 H         -4.5584382843       -0.1548208799        0.6974871091
 H         -4.8600593114       -0.9229173116       -0.7408093515
 H         -2.5775006477       -0.6015735364       -1.4830881225
 H         -2.6358939893       -1.5035777999        0.0214295933
 H         -2.2068651811        0.6125008290        1.2998507958
 H         -2.1477185525        1.5084525819       -0.1950825810
 H          0.0090817008        2.0552078949        1.2599352764
 H          2.4546814139        1.7312073887        1.1582492111
 H          1.9002465203       -1.8441579005       -1.0613730525
 H         -0.5361220612       -1.5415665427       -0.9705010342
  21
  -30.056664090000002        7.0549101962519799E-004 !gc
 N         -3.5086018827       -1.1147753247       -0.6041192842
 C         -2.9421293514        0.2689018691       -0.5298193561
 C         -2.0081841006        0.4805298598        0.6748827607
 C         -0.5400944302        0.3109202131        0.3903251788
 C          0.3943220554        1.0478488553        1.1171158805
 C          1.7471131299        0.8952953291        0.8987492028
 C          2.2072388135       -0.0090222661       -0.0533789515
 F          3.5051124419       -0.1592714556       -0.2644245881
 C          1.2835609726       -0.7566487040       -0.7768435275
 C         -0.0675228826       -0.5988696304       -0.5523513360
 H         -4.1199823690       -1.2974648478        0.1986793468
 H         -2.7721227391       -1.8281657579       -0.5964204206
 H         -4.0638356899       -1.2437031701       -1.4567957301
 H         -3.7827295456        0.9745227688       -0.4896672443
 H         -2.4106857084        0.5084097559       -1.4586617753
 H         -2.2909302927       -0.2048506701        1.4803274102
 H         -2.1606639593        1.4869640022        1.0827807351
 H          0.0515326867        1.7456909996        1.8632355034
 H          2.4698807801        1.4660375304        1.4578077052
 H          1.6490567814       -1.4578385329       -1.5085119154
 H         -0.7658311365       -1.1866776408       -1.1201017488
  21
  -30.056559920000002        6.3185623087860950E-004 !mtd1
 N         -3.5310269854       -1.0848089904       -0.6320621313
 C         -2.9345417203        0.2842338879       -0.5273599611
 C         -2.0060737098        0.4516476749        0.6892817796
 C         -0.5374392254        0.2952520243        0.4006182823
 C          0.3944904872        1.0462292818        1.1161221101
 C          1.7473199776        0.9020664659        0.8922443366
 C          2.2097596309       -0.0072021436       -0.0540736328
 F          3.5075905886       -0.1476066489       -0.2716829016
 C          1.2885275071       -0.7688834467       -0.7658886287
 C         -0.0626030901       -0.6194222783       -0.5360639523
 H         -4.1530687336       -1.2678645920        0.1623620672
 H         -2.8105045427       -1.8143830539       -0.6315109498
 H         -4.0814879610       -1.1863085200       -1.4915607321
 H         -3.7589734214        1.0083258345       -0.4813603593
 H         -2.3892509191        0.5276645343       -1.4471547825
 H         -2.2896138850       -0.2651481480        1.4665817808
 H         -2.1626928876        1.4405841665        1.1364050633
 H          0.0502162581        1.7475524991        1.8582547072
 H          2.4684113764        1.4836476003        1.4422257968
 H          1.6559616512       -1.4737978870       -1.4930107236
 H         -0.7599181435       -1.2178302145       -1.0939896794
  21
  -30.056545360000001        6.2219563473839897E-004 !mtd10
 N         -3.5407622928        1.1458665335       -0.4627685657
 C         -2.9351889313        0.2160511141        0.5420071532
 C         -1.9999913300       -0.8330055554       -0.0867347878
 C         -0.5335658356       -0.5011598537       -0.0232996157
 C         -0.0664502029        0.8035929210       -0.1626240638
 C          1.2823952751        1.0857329857       -0.1297766955
 C          2.2093402111        0.0614333555        0.0362049762
 F          3.5051974490        0.3280099870        0.0678013864
 C          1.7549147996       -1.2470973585        0.1657745893
 C          0.4038655839       -1.5213734158        0.1325186609
 H         -2.8255838428        1.6046767744       -1.0366625884
 H         -4.0955026811        1.8776505961       -0.0057394837
 H         -4.1606648701        0.6329768412       -1.0984891475
 H         -3.7548482977       -0.2765801036        1.0820205771
 H         -2.3925866325        0.7884000473        1.3040265719
 H         -2.2795930393       -0.9914327170       -1.1332450479
 H         -2.1529403992       -1.8016574131        0.4039433583
 H         -0.7685358603        1.6069307954       -0.2940886597
 H          1.6441354917        2.0953770870       -0.2322353981
 H          2.4805026146       -2.0337831859        0.2894444643
 H          0.0658602377       -2.5404294867        0.2246320965
