  21
        -29.94431187
 N         -2.9672979400        0.8877350381       -1.0103234367
 C         -2.9691668550       -0.4171482965       -0.2881277420
 C         -2.0357806384       -0.4324723176        0.9230772268
 C         -0.5888769583       -0.2569639616        0.5651725932
 C          0.0558788918        0.9646872667        0.7607717560
 C          1.3838368716        1.1258388102        0.4229747078
 C          2.1017160941        0.0661224652       -0.1246889553
 F          3.3692339316        0.2235728887       -0.4650959638
 C          1.4673239329       -1.1575802076       -0.3207179464
 C          0.1392768823       -1.3137443726        0.0194295654
 H         -3.2790772996        1.6538400196       -0.3954378566
 H         -3.5982101918        0.8721203291       -1.8261776486
 H         -2.0245070975        1.1240801984       -1.3530917155
 H         -2.6819727909       -1.2128834598       -0.9862347767
 H         -3.9968638509       -0.6498555600        0.0212116145
 H         -2.1496382513       -1.3699322922        1.4810056919
 H         -2.3330190669        0.3567898861        1.6218048712
 H         -0.4881790112        1.7885428444        1.1942594928
 H          1.8931477095        2.0640088931        0.5804412360
 H          2.0399708340       -1.9726357137       -0.7359825490
 H         -0.3412668296       -2.2681284181       -0.1265079838
  21
        -29.94157355
 N         -4.2188764743        0.1638372631       -0.4639759746
 C         -2.7409216951        0.2294593128       -0.6665109484
 C         -1.9503326494       -0.1842182128        0.5722026353
 C         -0.4625055758       -0.1238077610        0.3776669545
 C          0.2455796692        1.0462687308        0.6524590466
 C          1.6098595751        1.1101178606        0.4568847581
 C          2.3015452813        0.0022664601       -0.0253987588
 F          3.6072228084        0.0635709117       -0.2220054474
 C          1.6024360250       -1.1686831436       -0.3058582040
 C          0.2380617397       -1.2273844722       -0.1087047401
 H         -4.5199578230       -0.7912146739       -0.2208906290
 H         -4.7336695048        0.4443074841       -1.3124322622
 H         -4.5192217169        0.7872116741        0.2999952526
 H         -2.4600175090        1.2478917315       -0.9614470277
 H         -2.4620440648       -0.4093400469       -1.5133281704
 H         -2.2359067786       -1.1989641433        0.8700241970
 H         -2.2314401633        0.4516381946        1.4184707857
 H         -0.2815073465        1.9085921157        1.0286034288
 H          2.1661680470        2.0092024805        0.6726760892
 H          2.1531388343       -2.0198905934       -0.6756733018
 H         -0.2950023143       -2.1390428196       -0.3271497592
  21
        -29.93888185
 N         -3.4623184197       -1.1281006218       -0.6451780874
 C         -2.9549966913        0.2712925713       -0.5150774013
 C         -2.0152090565        0.4696921799        0.6858913007
 C         -0.5466307433        0.3043305179        0.3988999933
 C          0.3889436898        1.0081426357        1.1600004766
 C          1.7430946300        0.8625866387        0.9389524394
 C          2.2023368642       -0.0012677325       -0.0510146785
 F          3.4987051523       -0.1404021056       -0.2689121235
 C          1.2801076104       -0.7169456899       -0.8090392477
 C         -0.0722170554       -0.5665139729       -0.5815270603
 H         -4.0507280894       -1.2428411197       -1.4843983475
 H         -4.0408917602       -1.3858901414        0.1677978201
 H         -2.7003677367       -1.8184163202       -0.7039511314
 H         -3.8247783306        0.9376825454       -0.4308441797
 H         -2.4493936982        0.5768194436       -1.4392234204
 H         -2.2990015449       -0.2238333398        1.4849695357
 H         -2.1668099242        1.4713344855        1.1063612362
 H          0.0459768268        1.6753657114        1.9351241399
 H          2.4688468798        1.4079138464        1.5226054990
 H          1.6511731928       -1.3860971471       -1.5699893496
 H         -0.7703243095       -1.1285851650       -1.1766171035
  21
        -29.93879363
 N         -4.2836900440        0.3521786277       -0.0664034669
 C         -2.8278161040        0.6816467772       -0.0099424995
 C         -1.9366251537       -0.5530014065       -0.1369910044
 C         -0.4514152586       -0.3153985787       -0.0548548129
 C          0.1135038113        0.9593177576        0.0204392196
 C          1.4816234412        1.1281226547        0.0853274362
 C          2.3277319950        0.0231712911        0.0744795127
 F          3.6384093977        0.1836465561        0.1358554471
 C          1.7771710089       -1.2525163538       -0.0035264723
 C          0.4085745040       -1.4146043501       -0.0677475071
 H         -4.8703934187        1.1960657285        0.0183303678
 H         -4.5511166929       -0.2878055855        0.6957338940
 H         -4.5281978556       -0.1061374233       -0.9567239330
 H         -2.6146980797        1.1982996694        0.9337013794
 H         -2.5927523599        1.3951811937       -0.8086827292
 H         -2.1564674014       -1.0550170298       -1.0856842392
 H         -2.2160752810       -1.2707404344        0.6417995822
 H         -0.5211993591        1.8296509012        0.0287530218
 H          1.9232151375        2.1109272113        0.1446170557
 H          2.4441571877       -2.1009512847       -0.0129847470
 H         -0.0073091820       -2.4079635993       -0.1307856140
  21
        -29.93876925
 N         -3.5077688327        1.1686102154       -0.4198239387
 C         -2.9474544712        0.1754044361        0.5455928077
 C         -2.0011403710       -0.8451029608       -0.1100876534
 C         -0.5363807033       -0.5059039781       -0.0392047962
 C         -0.0753855406        0.8068978992       -0.1328240106
 C          1.2731220522        1.0945001568       -0.0920637880
 C          2.2048930729        0.0685522201        0.0364725238
 F          3.4977577259        0.3408062510        0.0774717875
 C          1.7589463959       -1.2473420516        0.1195489667
 C          0.4083520844       -1.5271228628        0.0786517619
 H         -4.1034687799        1.8647895139        0.0536531390
 H         -4.0923196392        0.7021712727       -1.1289939779
 H         -2.7725501964        1.6830905603       -0.9251192460
 H         -3.7908686079       -0.3408377366        1.0250331983
 H         -2.4289615430        0.6947677892        1.3608494512
 H         -2.2829719597       -0.9783597400       -1.1602582469
 H         -2.1454650634       -1.8286585829        0.3533186270
 H         -0.7817705265        1.6120519727       -0.2336246623
 H          1.6336177408        2.1092309428       -0.1601221210
 H          2.4922569523       -2.0337221554        0.2134257302
 H          0.0763518243       -2.5518511533        0.1365253456
  21
        -29.93866325
 N         -3.5407115671        1.2222401014        0.0125510314
 C         -2.9335651841       -0.0006919957       -0.5940355129
 C         -1.9995477780       -0.7578730613        0.3670127011
 C         -0.5333453481       -0.4637471152        0.1983145905
 C         -0.0657517568        0.8287065612       -0.0364531396
 C          1.2834420760        1.0874637448       -0.1614563039
 C          2.2087408926        0.0539495523       -0.0463931304
 F          3.5020840252        0.2976152566       -0.1700375323
 C          1.7560065917       -1.2390445391        0.1994395552
 C          0.4047963440       -1.4903449492        0.3223978652
 H         -4.1307482922        1.7292873229       -0.6645285524
 H         -2.8299612675        1.8824283733        0.3576047647
 H         -4.1412836709        0.9761968360        0.8135244988
 H         -2.3904474987        0.2651785147       -1.5094147345
 H         -3.7518383344       -0.6547932555       -0.9258868751
 H         -2.1484345210       -1.8383105667        0.2496967394
 H         -2.2876410837       -0.5401277823        1.4010405083
 H         -0.7683685112        1.6389003483       -0.1243902587
 H          1.6495288761        2.0853788323       -0.3465834404
 H          2.4847866017       -2.0296741972        0.2932515734
 H          0.0676103807       -2.4954993427        0.5211545002
