  21
  -29.944311870000000        8.2619417417937879E-002 !mtd9
 N         -2.9672979400        0.8877350381       -1.0103234367
 C         -2.9691668550       -0.4171482965       -0.2881277420
 C         -2.0357806384       -0.4324723176        0.9230772268
 C         -0.5888769583       -0.2569639616        0.5651725932
 C          0.0558788918        0.9646872667        0.7607717560
 C          1.3838368716        1.1258388102        0.4229747078
 C          2.1017160941        0.0661224652       -0.1246889553
 F          3.3692339316        0.2235728887       -0.4650959638
 C          1.4673239329       -1.1575802076       -0.3207179464
 C          0.1392768823       -1.3137443726        0.0194295654
 H         -3.2790772996        1.6538400196       -0.3954378566
 H         -3.5982101918        0.8721203291       -1.8261776486
 H         -2.0245070975        1.1240801984       -1.3530917155
 H         -2.6819727909       -1.2128834598       -0.9862347767
 H         -3.9968638509       -0.6498555600        0.0212116145
 H         -2.1496382513       -1.3699322922        1.4810056919
 H         -2.3330190669        0.3567898861        1.6218048712
 H         -0.4881790112        1.7885428444        1.1942594928
 H          1.8931477095        2.0640088931        0.5804412360
 H          2.0399708340       -1.9726357137       -0.7359825490
 H         -0.3412668296       -2.2681284181       -0.1265079838
  21
  -29.944308560000000        8.2330538799212385E-002 !mtd9
 N         -2.9393838787       -0.9384487271        1.0314452426
 C         -2.9822699152        0.3416299765        0.2673772359
 C         -2.0445189118        0.3496789973       -0.9404863463
 C         -0.5948080225        0.2242222575       -0.5730846326
 C          0.1001086170        1.3134045439       -0.0475326882
 C          1.4308641031        1.2035903206        0.2996947044
 C          2.1017295280       -0.0046567659        0.1311445911
 F          3.3725769353       -0.1170353514        0.4769056513
 C          1.4171462970       -1.0964421714       -0.3958116604
 C          0.0860980362       -0.9816432117       -0.7406024510
 H         -3.2174547718       -1.7348906155        0.4393806233
 H         -3.5776800431       -0.9199612163        1.8414844043
 H         -1.9916793140       -1.1288092324        1.3890206327
 H         -2.7251662615        1.1685542823        0.9405274270
 H         -4.0158638811        0.5293290934       -0.0528090147
 H         -2.1819976662        1.2679118558       -1.5244755914
 H         -2.3168033188       -0.4664145401       -1.6182673032
 H         -0.4088952031        2.2559455115        0.0770715556
 H          1.9775976202        2.0434068285        0.7000037018
 H          1.9544643328       -2.0223491181       -0.5321159080
 H         -0.4320826624       -1.8303067147       -1.1577678707
  21
  -29.944305360000001        8.2052220684320609E-002 !mtd3
 N         -2.9623863066        0.7697277130        1.1084038747
 C         -2.9690526452       -0.4472593556        0.2463207412
 C         -2.0378794243       -0.3305277638       -0.9610526385
 C         -0.5903631193       -0.1941762924       -0.5887888462
 C          0.0585766704        1.0382758021       -0.6689821492
 C          1.3871277897        1.1624505919       -0.3181448110
 C          2.1014912462        0.0534801882        0.1269963793
 F          3.3695656023        0.1738356501        0.4802118713
 C          1.4630286253       -1.1811381766        0.2070291550
 C          0.1344342626       -1.3001376504       -0.1457646416
 H         -3.5909970473        0.6651500296        1.9194570770
 H         -3.2741219454        1.5997695361        0.5829927867
 H         -2.0181097759        0.9650678354        1.4722755402
 H         -3.9979749296       -0.6420809982       -0.0846504055
 H         -2.6826825057       -1.3159150078        0.8515359485
 H         -2.3368278903        0.5300491727       -1.5693133176
 H         -2.1524019696       -1.2016412177       -1.6172960863
 H         -0.4827492516        1.9011788394       -1.0226073096
 H          1.8995346091        2.1096171486       -0.3866075514
 H          2.0329484073       -2.0335462130        0.5435886393
 H         -0.3491732330       -2.2625019208       -0.0906748368
  21
  -29.944305239999998        8.2041802077185200E-002 !mtd9
 N         -2.9487064003       -0.9940566891        0.9773830688
 C         -2.9794200838        0.3289169265        0.2895611949
 C         -2.0441860351        0.3976313268       -0.9183923839
 C         -0.5938121651        0.2535861255       -0.5604936132
 C          0.1055183828        1.3194884237        0.0054372427
 C          1.4364537127        1.1921831541        0.3459003404
 C          2.1029944181       -0.0109104004        0.1301321510
 F          3.3739286676       -0.1406065934        0.4694748922
 C          1.4140542117       -1.0793643427       -0.4374467971
 C          0.0829403763       -0.9470042527       -0.7757256850
 H         -2.0018523683       -1.2166172619        1.3172903500
 H         -3.2401279693       -1.7510534992        0.3415588312
 H         -3.5825079770       -1.0150203314        1.7912274944
 H         -2.7122259305        1.1126140650        1.0089070076
 H         -4.0116715282        0.5456633951       -0.0161889886
 H         -2.1824694478        1.3442609324       -1.4549045160
 H         -2.3181854532       -0.3830085855       -1.6360285651
 H         -0.4003165690        2.2580457680        0.1674267259
 H          1.9865529955        2.0143068160        0.7771585366
 H          1.9481949821       -2.0009787444       -0.6103733077
 H         -0.4383466274       -1.7769189700       -1.2254339392
  21
  -29.944300760000001        8.1653785912094337E-002 !mtd1
 N         -2.9719691729        0.8905904682       -1.0066490586
 C         -2.9691519000       -0.4169797727       -0.2893672969
 C         -2.0353198636       -0.4337611375        0.9214979230
 C         -0.5885336643       -0.2574832854        0.5635042833
 C          0.0553796429        0.9648812334        0.7574177053
 C          1.3834366903        1.1263669014        0.4202933108
 C          2.1025255819        0.0661319982       -0.1247727057
 F          3.3708031537        0.2228705039       -0.4626250994
 C          1.4689660999       -1.1582713588       -0.3192840618
 C          0.1407647081       -1.3147201093        0.0201519255
 H         -3.6037392551        0.8761101376       -1.8218429229
 H         -2.0305101197        1.1311990792       -1.3492820497
 H         -3.2855429915        1.6536781105       -0.3884410193
 H         -2.6794969197       -1.2091794244       -0.9904813437
 H         -3.9959859519       -0.6542350356        0.0193884582
 H         -2.1487716095       -1.3720763131        1.4780706559
 H         -2.3325721805        0.3542666597        1.6216105693
 H         -0.4896719952        1.7890157759        1.1891467133
 H          1.8920351208        2.0652252251        0.5760152252
 H          2.0427005333       -1.9738792631       -0.7319684124
 H         -0.3387118259       -2.2699353831       -0.1238636513
  21
  -29.944297559999999        8.1377755557799650E-002 !gc
 N         -2.9589703192        0.0583840174       -1.3684904457
 C         -2.9821339066        0.4237407182        0.0772679700
 C         -2.0353460527       -0.4268922201        0.9248766765
 C         -0.5888550045       -0.2501291645        0.5658426025
 C          0.1064145701        0.8907655078        0.9663790107
 C          1.4344806630        1.0636045811        0.6348718265
 C          2.1021811981        0.0962149568       -0.1111694903
 F          3.3701617314        0.2665177265       -0.4435863715
 C          1.4173064361       -1.0474727651       -0.5127614459
 C          0.0889768443       -1.2151146002       -0.1792202619
 H         -3.6009744460        0.6475340110       -1.9204139067
 H         -3.2441626854       -0.9219694146       -1.5092060644
 H         -2.0154941415        0.1713620838       -1.7676181672
 H         -4.0112796557        0.3324863983        0.4497023778
 H         -2.7213604408        1.4838120568        0.1827052275
 H         -2.3059265190       -1.4835184160        0.8234265326
 H         -2.1648117741       -0.1968306488        1.9892679274
 H         -0.4000402428        1.6404810365        1.5532335188
 H          1.9815883375        1.9396230901        0.9475050284
 H          1.9521926847       -1.7937885833       -1.0797515564
 H         -0.4292919015       -2.1095615392       -0.4859986169
  21
  -29.944284440000001        8.0255752854263715E-002 !mtd7
 N         -2.9839893014        0.8434999129        1.0477418528
 C         -2.9680369792       -0.4309965165        0.2733366857
 C         -2.0351745260       -0.3847325720       -0.9375292935
 C         -0.5878866424       -0.2276220251       -0.5725664682
 C          0.0491530762        1.0090191052       -0.6781046353
 C          1.3782829459        1.1516353321       -0.3365217945
 C          2.1052248018        0.0574333090        0.1245428448
 F          3.3744948752        0.1953246022        0.4669090032
 C          1.4782827731       -1.1810554344        0.2313240759
 C          0.1488721869       -1.3183579893       -0.1116346665
 H         -2.0451994679        1.0776502270        1.4019289336
 H         -3.6161094374        0.7869167795        1.8608432896
 H         -3.3047694394        1.6300549342        0.4635710388
 H         -3.9928085301       -0.6643838348       -0.0453627029
 H         -2.6699824919       -1.2506616291        0.9383302618
 H         -2.3330286367        0.4386448721       -1.5957693706
 H         -2.1492529565       -1.2926868007       -1.5418699998
 H         -0.5018328193        1.8601890087       -1.0448936448
 H          1.8816560620        2.1019791641       -0.4249419769
 H          2.0576601916       -2.0219734256        0.5804467424
 H         -0.3260626251       -2.2835606446       -0.0346995872
  21
  -29.944283639999998        8.0187840624941539E-002 !mtd7
 N         -2.9786287736        0.8107219289        1.0738086214
 C         -2.9689918108       -0.4391619654        0.2601999101
 C         -2.0356262604       -0.3598501767       -0.9485457630
 C         -0.5885559453       -0.2120181479       -0.5788338043
 C          0.0539329469        1.0228350763       -0.6721163081
 C          1.3829633201        1.1567757964       -0.3266655216
 C          2.1043280407        0.0554521310        0.1261166150
 F          3.3737368566        0.1846950341        0.4713246703
 C          1.4719407210       -1.1812623981        0.2206268281
 C          0.1427658630       -1.3099680448       -0.1265476611
 H         -3.2956007144        1.6163576156        0.5146063367
 H         -2.0385643656        1.0292731479        1.4345843122
 H         -3.6109219228        0.7319525950        1.8852710042
 H         -3.9947948312       -0.6576816373       -0.0656309379
 H         -2.6751325067       -1.2804263617        0.8995749919
 H         -2.3336313446        0.4810207006       -1.5842186711
 H         -2.1490213425       -1.2511167839       -1.5773616039
 H         -0.4926491333        1.8796151283       -1.0324100436
 H          1.8905988949        2.1056618603       -0.4059527993
 H          2.0470275421       -2.0276707081        0.5635063110
 H         -0.3362134210       -2.2739118909       -0.0597275598
  21
  -29.944282170000001        8.0063201682964727E-002 !mtd7
 N         -2.9812581054        0.8971185749       -0.9986471397
 C         -2.9691356766       -0.4162029084       -0.2920301302
 C         -2.0343242785       -0.4367509718        0.9180279978
 C         -0.5876753651       -0.2590131661        0.5600252504
 C          0.0539325342        0.9651704798        0.7498855856
 C          1.3825595782        1.1270532566        0.4150058438
 C          2.1043922463        0.0654701772       -0.1237837129
 F          3.3733527510        0.2226554750       -0.4589012663
 C          1.4728789121       -1.1604663722       -0.3150414358
 C          0.1440791160       -1.3172374174        0.0218785208
 H         -2.0419462647        1.1461182796       -1.3411476631
 H         -3.2984039398        1.6529730792       -0.3738598205
 H         -3.6145612028        0.8854600504       -1.8130554832
 H         -2.6751165227       -1.2009768792       -0.9996415695
 H         -3.9942201872       -0.6623236565        0.0156495752
 H         -2.1470899156       -1.3770035308        1.4714723492
 H         -2.3314072319        0.3486915576        1.6210964883
 H         -0.4930168980        1.7903997686        1.1770550415
 H          1.8895072057        2.0671816487        0.5683879953
 H          2.0483180589       -1.9767125978       -0.7240793034
 H         -0.3342603222       -2.2732657088       -0.1205282409
  21
  -29.944277920000001        7.9703939663281667E-002 !md8
 N         -2.9680379339        0.0535952257       -1.3672924060
 C         -2.9819202999        0.4260037096        0.0768050587
 C         -2.0344606264       -0.4245666387        0.9238120102
 C         -0.5880106617       -0.2483985016        0.5641157970
 C          0.1081091805        0.8914553115        0.9661717797
 C          1.4365392442        1.0633195428        0.6355918230
 C          2.1037841110        0.0958858349       -0.1107887827
 F          3.3727450368        0.2643119340       -0.4404279487
 C          1.4179573551       -1.0465737164       -0.5142693727
 C          0.0892422645       -1.2132304053       -0.1816849879
 H         -2.0263802139        0.1603909115       -1.7716330601
 H         -3.6102644917        0.6433310968       -1.9183618883
 H         -3.2586107416       -0.9263258055       -1.5018587778
 H         -4.0095430208        0.3406658711        0.4548290584
 H         -2.7162571268        1.4854553076        0.1760455499
 H         -2.3055103662       -1.4811461140        0.8231816528
 H         -2.1629848483       -0.1939119351        1.9881988513
 H         -0.3977346829        1.6410927772        1.5536550391
 H          1.9843777343        1.9383674230        0.9496773235
 H          1.9524772382       -1.7926967054       -1.0818737202
 H         -0.4297191314       -2.1068396358       -0.4897152776
  21
  -29.944276210000002        7.9559844744245628E-002 !mtd9
 N         -2.9589923195       -1.0056062625        0.9607100459
 C         -2.9808127812        0.3273550929        0.2921323185
 C         -2.0424865836        0.4087286146       -0.9126333773
 C         -0.5928109403        0.2592308112       -0.5539113318
 C          0.1076955470        1.3194225230        0.0212664884
 C          1.4392180080        1.1886159630        0.3581461373
 C          2.1051791627       -0.0124364499        0.1296869464
 F          3.3769126508       -0.1453800353        0.4647799989
 C          1.4147862351       -1.0754837663       -0.4462154434
 C          0.0830898867       -0.9396654114       -0.7808769348
 H         -3.5962292310       -1.0354113450        1.7712212930
 H         -2.0146595719       -1.2376361303        1.3013456248
 H         -3.2513873807       -1.7520067399        0.3124972754
 H         -2.7114675294        1.0992571060        1.0233261033
 H         -4.0111964505        0.5537193787       -0.0130127596
 H         -2.1785154748        1.3615993072       -1.4385867086
 H         -2.3158692675       -0.3632039780       -1.6398675978
 H         -0.3974253873        2.2567171909        0.1924908136
 H          1.9904250388        2.0066706302        0.7956929941
 H          1.9483135356       -1.9956817297       -0.6283214684
 H         -0.4392622568       -1.7653687310       -1.2370345173
  21
  -29.944272909999999        7.9282502873607927E-002 !mtd5
 N         -2.9676720861        0.0517499215       -1.3676196766
 C         -2.9819178643        0.4258841032        0.0760096855
 C         -2.0345590016       -0.4235057034        0.9242990126
 C         -0.5880645670       -0.2477874508        0.5645888559
 C          0.1087235087        0.8914353100        0.9672817057
 C          1.4372111126        1.0629013946        0.6367401795
 C          2.1038668718        0.0957435331       -0.1105222812
 F          3.3724960960        0.2643011338       -0.4413464642
 C          1.4173354713       -1.0460585235       -0.5146628228
 C          0.0885771103       -1.2123663952       -0.1820817113
 H         -3.2575971770       -0.9282402558       -1.5009542939
 H         -2.0260938586        0.1584804020       -1.7722009418
 H         -3.6103915310        0.6403779135       -1.9198020471
 H         -4.0096170313        0.3409389966        0.4539129539
 H         -2.7164174641        1.4854968210        0.1739616169
 H         -2.3055282432       -1.4802392343        0.8250973937
 H         -2.1632754337       -0.1914062894        1.9883450346
 H         -0.3968715822        1.6409569709        1.5551295846
 H          1.9855313895        1.9374624113        0.9513374753
 H          1.9513984098       -1.7921217588       -1.0827747478
 H         -0.4308694182       -2.1054932674       -0.4906793478
  21
  -29.941573550000001        4.5565630957243013E-003 !mtd11
 N         -4.2188764743        0.1638372631       -0.4639759746
 C         -2.7409216951        0.2294593128       -0.6665109484
 C         -1.9503326494       -0.1842182128        0.5722026353
 C         -0.4625055758       -0.1238077610        0.3776669545
 C          0.2455796692        1.0462687308        0.6524590466
 C          1.6098595751        1.1101178606        0.4568847581
 C          2.3015452813        0.0022664601       -0.0253987588
 F          3.6072228084        0.0635709117       -0.2220054474
 C          1.6024360250       -1.1686831436       -0.3058582040
 C          0.2380617397       -1.2273844722       -0.1087047401
 H         -4.5199578230       -0.7912146739       -0.2208906290
 H         -4.7336695048        0.4443074841       -1.3124322622
 H         -4.5192217169        0.7872116741        0.2999952526
 H         -2.4600175090        1.2478917315       -0.9614470277
 H         -2.4620440648       -0.4093400469       -1.5133281704
 H         -2.2359067786       -1.1989641433        0.8700241970
 H         -2.2314401633        0.4516381946        1.4184707857
 H         -0.2815073465        1.9085921157        1.0286034288
 H          2.1661680470        2.0092024805        0.6726760892
 H          2.1531388343       -2.0198905934       -0.6756733018
 H         -0.2950023143       -2.1390428196       -0.3271497592
  21
  -29.941571440000001        4.5464005917207062E-003 !mtd12
 N         -4.2432741946       -0.0492295061        0.1906700342
 C         -2.7838584004       -0.1481151445        0.4907471406
 C         -1.9037804879        0.2297504506       -0.6980729220
 C         -0.4338485013        0.1318712245       -0.4069011892
 C          0.2656107044        1.2240751759        0.1067170940
 C          1.6122666451        1.1311725753        0.3921200165
 C          2.2942627105       -0.0629943671        0.1747276198
 F          3.5836341130       -0.1555372014        0.4507842945
 C          1.6031597232       -1.1597733131       -0.3331468452
 C          0.2564783811       -1.0616729810       -0.6171232828
 H         -4.5048056255        0.9104951467       -0.0783642912
 H         -4.8193319786       -0.3100657563        1.0053100051
 H         -4.5074338514       -0.6717915055       -0.5871866177
 H         -2.5485099427       -1.1691399949        0.8151128931
 H         -2.5450330155        0.4947806927        1.3466693568
 H         -2.1417818658        1.2480672692       -1.0241612706
 H         -2.1468178992       -0.4083914763       -1.5543425249
 H         -0.2540043717        2.1536740768        0.2762941317
 H          2.1623535011        1.9731145402        0.7831857671
 H          2.1463244381       -2.0773738265       -0.4992375640
 H         -0.2700179887       -1.9155588719       -1.0129451639
  21
  -29.941569970000000        4.5393339522338851E-003 !gc
 N         -4.2194038359        0.1682841422       -0.4611291357
 C         -2.7415819166        0.2306142105       -0.6658902891
 C         -1.9502196478       -0.1873247112        0.5709093032
 C         -0.4624933393       -0.1257790742        0.3760980197
 C          0.2441214404        1.0458304988        0.6480408420
 C          1.6084431343        1.1107861531        0.4532106109
 C          2.3017519445        0.0024129541       -0.0255926299
 F          3.6077778151        0.0644690914       -0.2197356050
 C          1.6040357408       -1.1698810018       -0.3038091525
 C          0.2396081061       -1.2297006924       -0.1073618007
 H         -4.7347911679        0.4523212900       -1.3080380319
 H         -4.5164425066        0.7903943268        0.3048551435
 H         -4.5230444630       -0.7867735075       -0.2199267006
 H         -2.4585671461        1.2489506336       -0.9591692018
 H         -2.4655856011       -0.4072390805       -1.5143904947
 H         -2.2355809578       -1.2030895810        0.8654289679
 H         -2.2309924658        0.4454980502        1.4195484784
 H         -0.2842982292        1.9085926752        1.0213142133
 H          2.1636433475        2.0109682049        0.6672633869
 H          2.1559761322       -2.0213538841       -0.6711863267
 H         -0.2922320177       -2.1424676240       -0.3241616979
  21
  -29.941567700000000        4.5284430934688178E-003 !mtd8
 N         -4.2440131859       -0.0599578954        0.1848576903
 C         -2.7849505812       -0.1688474664        0.4833244732
 C         -1.9035540482        0.2491035303       -0.6910092389
 C         -0.4338297065        0.1438084720       -0.4013109826
 C          0.2696581063        1.2284179692        0.1228963351
 C          1.6165797075        1.1286439657        0.4047423701
 C          2.2946992331       -0.0651346907        0.1735388542
 F          3.5840922215       -0.1646734726        0.4470654832
 C          1.5994824839       -1.1544786740       -0.3446216672
 C          0.2526091856       -1.0494544388       -0.6251759000
 H         -4.8211636134       -0.3478603607        0.9895338998
 H         -4.5070777329       -0.6560025780       -0.6135246745
 H         -4.5051849111        0.9084992101       -0.0524314760
 H         -2.5499883612       -1.2002559963        0.7732416895
 H         -2.5472080689        0.4447416218        1.3608027632
 H         -2.1428445326        1.2771886529       -0.9837605136
 H         -2.1441991731       -0.3608663129       -1.5682498084
 H         -0.2468620502        2.1576849705        0.3034164800
 H          2.1698538164        1.9648563680        0.8035414070
 H          2.1396083723       -2.0719202713       -0.5211525427
 H         -0.2771674708       -1.8975832115       -1.0289033253
  21
  -29.941567689999999        4.5283951739671785E-003 !md3
 N         -4.2197742959        0.1595363687       -0.4634379005
 C         -2.7420456915        0.2183494030       -0.6699672831
 C         -1.9501505998       -0.1761244430        0.5741816962
 C         -0.4624712856       -0.1182329989        0.3778448761
 C          0.2490259853        1.0488773682        0.6565140171
 C          1.6134852000        1.1094664609        0.4611667657
 C          2.3019704973        0.0014412082       -0.0253300356
 F          3.6079082689        0.0597512935       -0.2212470564
 C          1.5993423181       -1.1662677429       -0.3103846965
 C          0.2348587101       -1.2218259100       -0.1130972717
 H         -4.5166430703        0.7951614753        0.2913468806
 H         -4.5229174738       -0.7908244578       -0.2049874378
 H         -4.7357343148        0.4281876751       -1.3153073284
 H         -2.4593210456        1.2310287210       -0.9824858086
 H         -2.4663449979       -0.4353300677       -1.5063951211
 H         -2.2350057079       -1.1862649752        0.8879628213
 H         -2.2310481568        0.4725145351        1.4107361625
 H         -0.2755825849        1.9115424098        1.0353452751
 H          2.1724926355        2.0059970140        0.6805931526
 H          2.1475039333       -2.0176034277       -0.6836799584
 H         -0.3007920127       -2.1312555066       -0.3344514973
  21
  -29.941566770000001        4.5239887487786862E-003 !gc
 N         -4.2434650173       -0.0498696976        0.1901972827
 C         -2.7841293410       -0.1525318317        0.4894357622
 C         -1.9038047217        0.2326884244       -0.6968318947
 C         -0.4338797785        0.1336547934       -0.4060015603
 C          0.2663792051        1.2248502162        0.1086820657
 C          1.6132610868        1.1311688113        0.3927773329
 C          2.2946393011       -0.0630090407        0.1735101084
 F          3.5832973850       -0.1575680038        0.4521858027
 C          1.6027894405       -1.1586775007       -0.3357467446
 C          0.2558659430       -1.0598458535       -0.6183234183
 H         -4.5087745909       -0.6680337567       -0.5903756683
 H         -4.5034288085        0.9115503610       -0.0742202222
 H         -4.8199763767       -0.3137777414        1.0038444342
 H         -2.5499542712       -1.1760605184        0.8066693814
 H         -2.5444673251        0.4841315537        1.3497750426
 H         -2.1421093301        1.2528540995       -1.0168425370
 H         -2.1463848502       -0.4003601655       -1.5569995642
 H         -0.2527178045        2.1544209125        0.2800082693
 H          2.1638750044        1.9722972687        0.7848461193
 H          2.1454184276       -2.0763243178       -0.5033242782
 H         -0.2714349692       -1.9131926316       -1.0142326130
  21
  -29.938881850000001        2.6400838299953447E-004 !gc
 N         -3.4623184197       -1.1281006218       -0.6451780874
 C         -2.9549966913        0.2712925713       -0.5150774013
 C         -2.0152090565        0.4696921799        0.6858913007
 C         -0.5466307433        0.3043305179        0.3988999933
 C          0.3889436898        1.0081426357        1.1600004766
 C          1.7430946300        0.8625866387        0.9389524394
 C          2.2023368642       -0.0012677325       -0.0510146785
 F          3.4987051523       -0.1404021056       -0.2689121235
 C          1.2801076104       -0.7169456899       -0.8090392477
 C         -0.0722170554       -0.5665139729       -0.5815270603
 H         -4.0507280894       -1.2428411197       -1.4843983475
 H         -4.0408917602       -1.3858901414        0.1677978201
 H         -2.7003677367       -1.8184163202       -0.7039511314
 H         -3.8247783306        0.9376825454       -0.4308441797
 H         -2.4493936982        0.5768194436       -1.4392234204
 H         -2.2990015449       -0.2238333398        1.4849695357
 H         -2.1668099242        1.4713344855        1.1063612362
 H          0.0459768268        1.6753657114        1.9351241399
 H          2.4688468798        1.4079138464        1.5226054990
 H          1.6511731928       -1.3860971471       -1.5699893496
 H         -0.7703243095       -1.1285851650       -1.1766171035
  21
  -29.938870990000002        2.6099176639611760E-004 !mtd4
 N         -3.4690938461       -0.4514253468       -1.2043400635
 C         -2.9480015762       -0.5809663674        0.1900137610
 C         -2.0156898408        0.5704801018        0.6018517152
 C         -0.5466053910        0.3306495156        0.3771408602
 C          0.3892629177        0.9446201050        1.2120990778
 C          1.7436337700        0.7656535284        1.0185646783
 C          2.2027192441       -0.0318417539       -0.0256688064
 F          3.4992585703       -0.2100208494       -0.2117573893
 C          1.2801276006       -0.6403636819       -0.8716342273
 C         -0.0724129780       -0.4562085974       -0.6719475467
 H         -2.7145411297       -0.3745185720       -1.9005860159
 H         -4.0551317903        0.3908591879       -1.3004959322
 H         -4.0538428015       -1.2592551999       -1.4684780949
 H         -2.4318809230       -1.5411270582        0.3121547952
 H         -3.8112708673       -0.6315701663        0.8680951898
 H         -2.1627248405        0.7969436066        1.6651596144
 H         -2.3101602092        1.4816780303        0.0702599641
 H          0.0463670514        1.5709496180        2.0206508412
 H          2.4698101174        1.2354207524        1.6640754643
 H          1.6509901660       -1.2520093425       -1.6796257836
 H         -0.7708091144       -0.9344429290       -1.3359279776
  21
  -29.938793629999999        2.4047759076456098E-004 !mtd7
 N         -4.2836900440        0.3521786277       -0.0664034669
 C         -2.8278161040        0.6816467772       -0.0099424995
 C         -1.9366251537       -0.5530014065       -0.1369910044
 C         -0.4514152586       -0.3153985787       -0.0548548129
 C          0.1135038113        0.9593177576        0.0204392196
 C          1.4816234412        1.1281226547        0.0853274362
 C          2.3277319950        0.0231712911        0.0744795127
 F          3.6384093977        0.1836465561        0.1358554471
 C          1.7771710089       -1.2525163538       -0.0035264723
 C          0.4085745040       -1.4146043501       -0.0677475071
 H         -4.8703934187        1.1960657285        0.0183303678
 H         -4.5511166929       -0.2878055855        0.6957338940
 H         -4.5281978556       -0.1061374233       -0.9567239330
 H         -2.6146980797        1.1982996694        0.9337013794
 H         -2.5927523599        1.3951811937       -0.8086827292
 H         -2.1564674014       -1.0550170298       -1.0856842392
 H         -2.2160752810       -1.2707404344        0.6417995822
 H         -0.5211993591        1.8296509012        0.0287530218
 H          1.9232151375        2.1109272113        0.1446170557
 H          2.4441571877       -2.1009512847       -0.0129847470
 H         -0.0073091820       -2.4079635993       -0.1307856140
  21
  -29.938769250000000        2.3435290429576366E-004 !mtd3
 N         -3.5077688327        1.1686102154       -0.4198239387
 C         -2.9474544712        0.1754044361        0.5455928077
 C         -2.0011403710       -0.8451029608       -0.1100876534
 C         -0.5363807033       -0.5059039781       -0.0392047962
 C         -0.0753855406        0.8068978992       -0.1328240106
 C          1.2731220522        1.0945001568       -0.0920637880
 C          2.2048930729        0.0685522201        0.0364725238
 F          3.4977577259        0.3408062510        0.0774717875
 C          1.7589463959       -1.2473420516        0.1195489667
 C          0.4083520844       -1.5271228628        0.0786517619
 H         -4.1034687799        1.8647895139        0.0536531390
 H         -4.0923196392        0.7021712727       -1.1289939779
 H         -2.7725501964        1.6830905603       -0.9251192460
 H         -3.7908686079       -0.3408377366        1.0250331983
 H         -2.4289615430        0.6947677892        1.3608494512
 H         -2.2829719597       -0.9783597400       -1.1602582469
 H         -2.1454650634       -1.8286585829        0.3533186270
 H         -0.7817705265        1.6120519727       -0.2336246623
 H          1.6336177408        2.1092309428       -0.1601221210
 H          2.4922569523       -2.0337221554        0.2134257302
 H          0.0763518243       -2.5518511533        0.1365253456
  21
  -29.938751159999999        2.2990941248789335E-004 !mtd12
 N         -3.4988708205       -0.5084696758       -1.1684664598
 C         -2.9391527308       -0.5698629120        0.2154974609
 C         -2.0125579712        0.6115726649        0.5512642930
 C         -0.5429169718        0.3558671041        0.3507766152
 C          0.3889875310        0.9483240800        1.2054826931
 C          1.7433585895        0.7528872775        1.0286851293
 C          2.2061854893       -0.0396195936       -0.0177579252
 F          3.5027116025       -0.2334063889       -0.1874159829
 C          1.2874537019       -0.6263274393       -0.8832504362
 C         -0.0650936918       -0.4259335323       -0.7001938391
 H         -4.0800099140       -1.3337341082       -1.3804065312
 H         -2.7635992195       -0.4552862964       -1.8871902540
 H         -4.0977257252        0.3223581015       -1.2860364832
 H         -2.4049631900       -1.5165262154        0.3633837812
 H         -3.7828174159       -0.6039736526        0.9188086604
 H         -2.1666832282        0.9131968473        1.5946627436
 H         -2.3047705671        1.4825414016       -0.0450766883
 H          0.0436066247        1.5713513947        2.0154898786
 H          2.4667868221        1.2065009674        1.6886916652
 H          1.6612086665       -1.2339601052       -1.6929182205
 H         -0.7615065585       -0.8858919177       -1.3791401369
  21
  -29.938663250000001        2.0948653476106412E-004 !mtd3
 N         -3.5407115671        1.2222401014        0.0125510314
 C         -2.9335651841       -0.0006919957       -0.5940355129
 C         -1.9995477780       -0.7578730613        0.3670127011
 C         -0.5333453481       -0.4637471152        0.1983145905
 C         -0.0657517568        0.8287065612       -0.0364531396
 C          1.2834420760        1.0874637448       -0.1614563039
 C          2.2087408926        0.0539495523       -0.0463931304
 F          3.5020840252        0.2976152566       -0.1700375323
 C          1.7560065917       -1.2390445391        0.1994395552
 C          0.4047963440       -1.4903449492        0.3223978652
 H         -4.1307482922        1.7292873229       -0.6645285524
 H         -2.8299612675        1.8824283733        0.3576047647
 H         -4.1412836709        0.9761968360        0.8135244988
 H         -2.3904474987        0.2651785147       -1.5094147345
 H         -3.7518383344       -0.6547932555       -0.9258868751
 H         -2.1484345210       -1.8383105667        0.2496967394
 H         -2.2876410837       -0.5401277823        1.4010405083
 H         -0.7683685112        1.6389003483       -0.1243902587
 H          1.6495288761        2.0853788323       -0.3465834404
 H          2.4847866017       -2.0296741972        0.2932515734
 H          0.0676103807       -2.4954993427        0.5211545002
  21
  -29.938661260000000        2.0904586054603736E-004 !mtd6
 N         -3.5264916204       -0.5606285527       -1.1302969799
 C         -2.9313899639       -0.5563748724        0.2401061967
 C         -2.0091870187        0.6483638255        0.4999111543
 C         -0.5392270776        0.3784737444        0.3238137525
 C          0.3872003251        0.9532675172        1.1963209114
 C          1.7414678250        0.7429581460        1.0365177734
 C          2.2093017180       -0.0471337140       -0.0095867569
 F          3.5057501198       -0.2536430396       -0.1640302509
 C          1.2957855371       -0.6168982768       -0.8918414622
 C         -0.0566970921       -0.4016116333       -0.7260909323
 H         -2.8091904389       -0.5403342137       -1.8686374720
 H         -4.1314546696        0.2617445350       -1.2714358786
 H         -4.1091970137       -1.3970115150       -1.2889606170
 H         -2.3823459612       -1.4902933590        0.4130347668
 H         -3.7558417730       -0.5698094981        0.9665119639
 H         -2.1697423044        1.0217361544        1.5187797461
 H         -2.2982248977        1.4758220886       -0.1568955108
 H          0.0382083294        1.5751332788        2.0056406632
 H          2.4610080417        1.1840067921        1.7091645016
 H          1.6736623280       -1.2232351851       -1.7005654618
 H         -0.7500929998       -0.8467028807       -1.4181391065
