21
 energy: -30.063895967527 gnorm: 0.000613640861 xtb: 6.5.1 (fef0646)
N            2.70900532831270        3.73154597704695       -1.11091791715523
C            2.40331618634572        2.80034901721392        0.00254434372723
C            2.95391455974433        1.40863589520015       -0.30352777214543
C            4.46035349270167        1.38533350677284       -0.32849242032433
C            5.17812680775179        1.50513835532206        0.85784375542311
C            6.56067082435936        1.48005545024874        0.85709389852052
C            7.21541504185074        1.33092018652207       -0.35124839197664
F            8.58243053739215        1.29380085871535       -0.36070366031489
C            6.53721920839204        1.21307247215616       -1.54770701925916
C            5.15262729535186        1.24548174117847       -1.52567782196369
H            2.36753415192893        4.67609217777685       -0.90042999693404
H            2.26629496986571        3.40669967853063       -1.97895942297660
H            3.72393492376555        3.77132481637623       -1.26306638181315
H            1.32371284958298        2.74474453525020        0.13526746115811
H            2.85216233355953        3.18243410960966        0.91886889707899
H            2.56561289673198        1.05245289827645       -1.25696895201525
H            2.60553913533268        0.72565460078011        0.47081599852099
H            4.65785588811165        1.60253360354959        1.79790792332597
H            7.13136502887137        1.56194954333368        1.76807914195454
H            7.08824756260565        1.09227852300096       -2.46636240640908
H            4.61831097744146        1.13501205313889       -2.45664925642199
