23
 energy: -32.858995866673 gnorm: 0.000631332332 xtb: 6.5.1 (fef0646)
N            1.66436250860498        1.17350578159623        0.39412221179340
C            2.60890049811415        0.13221363745870       -0.06992773077088
C            3.09775073225771       -0.66967822722485        1.09252926718507
C            4.36200509153572       -1.05277532861698        1.25185494818422
C            4.89280355078301       -1.86150561555262        2.34077611751735
C            6.21280172188137       -2.31116213481443        2.26564715078700
C            6.76098051534673       -3.08360234295901        3.27162381739171
C            6.00243829904019       -3.41856162838467        4.38105118332054
C            4.69287363241945       -2.97380846985736        4.47364384728121
C            4.14194790557379       -2.20505780721621        3.46663877324109
Cl          -0.52343624188525       -0.10294123181781        2.11085655868013
H            1.23611298648758        1.67072571910352       -0.38969563810011
H            2.13466700217159        1.83874907968497        1.01293412193381
H            0.89328270039056        0.72923844812041        0.95708668983750
H            3.44132804634979        0.59479574466539       -0.60206061529270
H            2.07259148739694       -0.53243376743839       -0.75163175281852
H            2.32268821413388       -0.94391747963721        1.79429759153992
H            5.09442368916631       -0.76878759489228        0.50627388549009
H            6.81185836932950       -2.05484952511991        1.40379007647515
H            7.78252119436485       -3.42557755060925        3.19381580468324
H            6.42736527842778       -4.02068522848182        5.17028560771446
H            4.09731532936774       -3.22881654967452        5.33855621417678
H            3.12147748874122       -1.86589792833180        3.56065186974900
