34
 energy: -51.430466353727 gnorm: 0.000670796315 xtb: 6.5.1 (fef0646)
N            2.51740712063425       -1.83583070771085        1.83251434018879
C            2.28856020718324       -2.43516194345334        0.50292023547194
C            2.94796505340039       -1.56953880170468       -0.57088016228545
C            4.44387208231700       -1.58042424476965       -0.44182315952463
C            5.20580538380346       -2.55973663650900       -1.07662295713693
C            6.57577804661554       -2.58690269963493       -0.94094753280089
C            5.08699886518305       -0.62204524895762        0.33988690666050
C            6.45907721034569       -0.63210520541251        0.47673751294925
C            7.22215822617711       -1.62062967038280       -0.15667629012497
N            8.58895677352045       -1.53904967755253        0.01716186625522
N            9.28074102655548       -2.52400168206159       -0.40570975333116
C           10.65383460880784       -2.41633940575339       -0.27196859881324
C           11.32207156094406       -1.25191902954522        0.12940679082265
C           12.69817204307164       -1.24232731417887        0.20883080121198
C           13.42539039962372       -2.38271452907649       -0.10533772485317
C           12.77083611514453       -3.53859367869666       -0.50499172117707
C           11.39369496784594       -3.55938642732483       -0.59348756847237
Cl           1.81933577812124        1.14290519489384        1.81393670010873
H            2.01314063886391       -2.33451349315084        2.56849603377587
H            2.20099946612304       -0.83139575046941        1.83348825628268
H            3.51795474353367       -1.81794685192620        2.04768808734023
H            1.21628840626715       -2.47536572660909        0.31823557491535
H            2.70278429421360       -3.44400374766299        0.48198838726174
H            2.57781595503160       -0.54956810177953       -0.45919671188479
H            2.65948927820029       -1.94201577749370       -1.55259945642243
H            4.71599253929359       -3.30031539606070       -1.69108921999373
H            7.17759407351385       -3.33208079662042       -1.43777723614353
H            4.50233401299890        0.14939953963351        0.82149005000555
H            6.96652135542737        0.10936216971866        1.07410065705568
H           10.73764646116719       -0.37586407993734        0.36588535519245
H           13.21197346397471       -0.34367141709868        0.51612095071784
H           14.50252047063469       -2.36765519534917       -0.04037077730308
H           13.33923883682123       -4.42274216624261       -0.74985551940418
H           10.86463053463990       -4.44753150112068       -0.90116411654637
