25
 energy: -36.495167090236 gnorm: 0.000902978122 xtb: 6.5.1 (fef0646)
N            3.22378771124510        1.33196206950846        0.93365906245802
C            2.66881482631526        0.11967750617769        0.26927366832775
C            3.03074797807548        0.14665985454129       -1.21859058775998
C            4.50873455965828        0.07035419805144       -1.41863594353810
C            5.26564740291406       -0.98675483461881       -1.81253528656224
C            6.64980220828867       -0.72027021843045       -1.81983605415339
C            6.97595386680034        0.54611361382567       -1.41623223560293
C            8.25948070230866        1.15309367216780       -1.27904118300559
C            9.47806706248919        0.65089152412336       -1.66835312178319
C           10.54350334995546        1.51672941501065       -1.36921019021242
C           10.14095307493937        2.66249431529319       -0.75626222836267
S            8.44552381670963        2.71821653216203       -0.53293602606373
S            5.52973914284558        1.45746582999422       -1.06526494187531
H            3.17720182346169        1.27124939199740        1.95538924500127
H            2.72290343389123        2.17233895422258        0.62302110334040
H            4.22404511041020        1.43185811967772        0.61646994215110
H            1.58750224519281        0.09365157922632        0.40512238955808
H            3.10902520587596       -0.76102808767303        0.73866478645221
H            2.62685504462973        1.05036496692032       -1.67991604787249
H            2.56532925981819       -0.71157390151750       -1.70240949821155
H            4.85121052606384       -1.93782726410941       -2.09437264628401
H            7.38787844034271       -1.44532729347282       -2.10614422031348
H            9.59923108455813       -0.29650804503435       -2.15951880075352
H           11.57001921700597        1.29967957263258       -1.60059375055848
H           10.73920290620472        3.48618852932247       -0.42100743437489
