  15
        -18.07427149
 O         -1.2650831490        0.9572515536        0.0272212934
 C         -1.3297109088       -0.4406759101       -0.1567684262
 C         -0.0592118056       -1.1294009315        0.3322725756
 C          1.1970573675       -0.5587493370       -0.3195861163
 N          1.4774666698        0.8379010994        0.1116906651
 H         -2.1170910022        1.3980758646       -0.1631631977
 H         -1.4839933250       -0.6279688572       -1.2286124289
 H         -2.2128323269       -0.8208804896        0.3786499558
 H         -0.1263212206       -2.2118568746        0.1609176242
 H          0.0163456616       -0.9975533936        1.4182147630
 H          1.0880751278       -0.5841371262       -1.4119816136
 H          2.0722015198       -1.1831581431       -0.0902507677
 H          0.6287433657        1.4137124108       -0.0210883374
 H          2.2494119915        1.2649697255       -0.4212795702
 H          1.7215884083        0.8780670442        1.1113314468
  15
        -18.06917837
 O         -1.2530065085        0.9565727279        0.0959213168
 C         -1.3039779833       -0.4190315377       -0.2127416967
 C         -0.0778621419       -1.1481935085        0.3235480623
 C          1.2260214639       -0.5972180738       -0.2482294846
 N          1.4322286305        0.8651161646        0.0456167073
 H         -2.0779164268        1.4239873377       -0.1442879058
 H         -1.3691853053       -0.5188576347       -1.3050713786
 H         -2.2275609851       -0.8343744639        0.2182601584
 H         -0.1589931793       -2.2254960329        0.1278857001
 H         -0.0607960716       -1.0390205526        1.4148198591
 H          1.2487408880       -0.7569656975       -1.3349597665
 H          2.0788250234       -1.1704562611        0.1438901781
 H          0.6694418034        1.2192757963        0.6503859750
 H          1.4135411915        1.4356822971       -0.8125704657
 H          2.3274326923        1.0525076107        0.5227132584
  15
        -18.06718378
 O         -1.1954947662        0.9147700386        0.2807369463
 C         -1.3370203369       -0.3905697143       -0.2392818602
 C         -0.0393253206       -1.2163041548       -0.0902380516
 C          1.1146831068       -0.3933052760        0.4751544165
 N          1.4699150503        0.7677228719       -0.3824285093
 H         -2.0469017752        1.3941608550        0.3292759725
 H         -1.6292554543       -0.2894406000       -1.2951629486
 H         -2.1767502646       -0.8756705967        0.2819714757
 H          0.2567912617       -1.6372086334       -1.0595342301
 H         -0.2194511395       -2.0863436055        0.5566642367
 H          2.0047264719       -1.0209354598        0.6240320687
 H          0.8327522627       -0.0175279888        1.4688184610
 H          0.6498134718        1.3925975655       -0.4770143870
 H          1.7537756878        0.4666560648       -1.3255983597
 H          2.2426895012        1.3195264737        0.0192014132
  15
        -18.06691701
 O         -1.2923145738        0.8789924777        0.3839196567
 C         -1.2213446346       -0.2882737312       -0.4078976944
 C         -0.0802109299       -1.2047198221        0.0319720412
 C          1.1562539354       -0.4056802749        0.4480379027
 N          1.4432170559        0.7425939703       -0.4533461219
 H         -1.8863487789        0.7805983844        1.1552495130
 H         -1.0568113570        0.0698949946       -1.4339732787
 H         -2.1980770472       -0.7960721308       -0.4174020924
 H          0.1702898862       -1.9029822524       -0.7767406763
 H         -0.4099923517       -1.8320730142        0.8704374496
 H          2.0388510785       -1.0576396090        0.5133907467
 H          1.0054139281       -0.0041939575        1.4601564681
 H          1.5967342796        0.4309292438       -1.4243411375
 H          2.2824393987        1.2618156879       -0.1557872952
 H          0.6469714687        1.4030594314       -0.4445676881
  15
        -18.06590652
 O         -1.2764440489        0.9274397378        0.3256247269
 C         -1.2059179708       -0.2917557326       -0.3839231668
 C         -0.1193573318       -1.2087516930        0.1660203871
 C          1.2890103528       -0.5719641002        0.1712698240
 N          1.3373066154        0.8416269459       -0.2989925035
 H         -1.9119822370        0.8982516435        1.0689681422
 H         -0.9969648533       -0.0256870811       -1.4286892897
 H         -2.1976580666       -0.7697814827       -0.3835374482
 H         -0.1101360384       -2.1521437424       -0.3962843374
 H         -0.3983027652       -1.4900959815        1.1898394398
 H          1.9814669987       -1.1636100790       -0.4453924368
 H          1.7139691291       -0.6108442493        1.1852050156
 H          2.2674722104        1.2659864888       -0.1549397350
 H          0.6426157999        1.4137791930        0.2091873626
 H          1.1195155159        0.9132999824       -1.3025306649
  15
        -18.06575593
 O         -1.2766878825        0.8368204131       -0.4283389967
 C         -1.2373736336       -0.2825394316        0.4309705561
 C         -0.0681652937       -1.2052720804        0.0708429472
 C          1.1258317433       -0.4209426075       -0.4693342342
 N          1.4740278586        0.7591087079        0.3644748932
 H         -2.1273589720        1.3185967029       -0.3864935029
 H         -2.1985289635       -0.8159818160        0.3774784690
 H         -1.1358105164        0.1032894126        1.4552750889
 H         -0.3932484295       -1.9299830856       -0.6877371496
 H          0.2270755067       -1.8022848633        0.9431208288
 H          0.8861992986       -0.0576215158       -1.4794289314
 H          2.0045206370       -1.0720444331       -0.5792432684
 H          2.2891780042        1.2684486518       -0.0125335517
 H          1.6951735773        0.4846741149        1.3322494114
 H          0.6760433211        1.4163042643        0.3846367009
