  15
        -18.07427149
 O         -1.2650831490        0.9572515536        0.0272212934
 C         -1.3297109088       -0.4406759101       -0.1567684262
 C         -0.0592118056       -1.1294009315        0.3322725756
 C          1.1970573675       -0.5587493370       -0.3195861163
 N          1.4774666698        0.8379010994        0.1116906651
 H         -2.1170910022        1.3980758646       -0.1631631977
 H         -1.4839933250       -0.6279688572       -1.2286124289
 H         -2.2128323269       -0.8208804896        0.3786499558
 H         -0.1263212206       -2.2118568746        0.1609176242
 H          0.0163456616       -0.9975533936        1.4182147630
 H          1.0880751278       -0.5841371262       -1.4119816136
 H          2.0722015198       -1.1831581431       -0.0902507677
 H          0.6287433657        1.4137124108       -0.0210883374
 H          2.2494119915        1.2649697255       -0.4212795702
 H          1.7215884083        0.8780670442        1.1113314468
