27
 energy: -35.325320656202 gnorm: 0.000323811365 xtb: 6.5.1 (fef0646)
N            3.40419078511030       -0.75500446641251        0.73173497399349
C            2.35499198083307       -0.02014640102730       -0.08746310087625
C            1.03699471894758       -0.76177825160563        0.05242444790168
C            2.84952704855140        0.06453624880471       -1.50759061910276
C            3.14407085433881       -1.11882938665522       -2.21853784540523
C            3.59377059738535       -1.05739030990187       -3.50627376856313
C            3.01636481659407        1.28225794353119       -2.11565405576727
C            3.47250977175906        1.37649474600691       -3.44529929764154
C            3.77282550639002        0.18221586793494       -4.15493936875421
C            4.23535152846144        0.27384087932976       -5.48321605222697
C            4.39193404331788        1.49438013041569       -6.08006709198864
C            4.09369735623577        2.67431711810596       -5.37918932336599
C            3.64372982552476        2.61947275792951       -4.08931482218113
H            4.28725615355549       -0.23104870319491        0.74200218406998
H            3.57251824484735       -1.66530508048470        0.28016518706417
H            3.08229751652518       -0.90894405696890        1.69506164296164
H            2.26316589467207        0.98411138941738        0.33504316836543
H            1.10321035281221       -1.77152906863487       -0.34384034085072
H            0.27276295269626       -0.23719742561194       -0.51408098848564
H            0.71339126505884       -0.80297100729851        1.09010021608763
H            2.99653544062905       -2.08622239505539       -1.75577387934075
H            3.81511098938206       -1.96398268598371       -4.04869209796479
H            2.78761214234856        2.19453482632992       -1.58318605530275
H            4.46177657054928       -0.63548081032868       -6.01940410792759
H            4.74597484304102        1.56025730942921       -7.09722195935903
H            4.22258617839313        3.62689263477710       -5.86938147293425
H            3.41168262203989        3.52386819715181       -3.54680557240543
