14
 energy: -14.114859496961 gnorm: 0.000284021825 xtb: 6.5.1 (fef0646)
N            1.00054669693528        0.03754783155380        0.08145984019351
C            2.48405698830602        0.05404410390999        0.08020496588856
C            3.01263761513206        1.46318101923025        0.32717103064921
C            4.53774012352051        1.46776301060165        0.33028515689095
H            0.64672736907268       -0.91088624346352       -0.08736927185513
H            0.64039472022557        0.65961753577518       -0.65182568491509
H            0.64440506733389        0.36694685066180        0.98663462051077
H            2.84532707218442       -0.30753866638389       -0.88249683335206
H            2.85031421993923       -0.61496151192577        0.85890853328707
H            2.65908969367729        1.83560644577820        1.28935305678835
H            2.66164685887733        2.13956942846469       -0.45312429123970
H            4.92665522147738        0.82116473332539        1.11321300892260
H            4.91572052486858        2.47155274781468        0.50498328501846
H            4.92939782844976        1.12239271465755       -0.62344741678748
