14
 energy: -14.003569145295 gnorm: 0.000289637071 xtb: 6.5.1 (fef0646)
N            0.96790443319253        0.05519875750538        0.09373081096807
C            2.46587677412121        0.06002403619806        0.07576610671816
C            2.98720223650491        0.45194976109290       -1.30027141312473
C            4.51308033248858        0.45230285054631       -1.30579290878424
H            0.60305710552991       -0.20780835194475        1.01776163527595
H            0.61416230177021       -0.61164798929101       -0.60538041292692
H            0.61446470772306        0.99041109506683       -0.14925035871598
H            2.81768227310925       -0.93744549771050        0.34289573709193
H            2.81802102960406        0.76679710023147        0.82845246512164
H            2.62848690344807        1.44826815525301       -1.56474814413349
H            2.62714474330696       -0.25457641001416       -2.05024715219510
H            4.90198143189305        1.16326570868237       -0.58243535753021
H            4.87996786145692        0.73224749807460       -2.28801111589468
H            4.90061786585128       -0.53389671369050       -1.06665989187039
