  21
        -29.29370423
 N         -4.0576318748        1.0868623624       -1.0415957957
 C         -4.1867173945       -0.2857390031       -0.4745244263
 C         -3.3590010987       -0.4821734859        0.7951362415
 C         -1.8820427318       -0.3383854468        0.5682768659
 C         -1.1558456978       -1.3664294025       -0.0174208968
 C          0.2033806307       -1.2352807927       -0.2366080717
 C          0.8440858867       -0.0742847663        0.1259898594
 Br         2.6897047758        0.1003475257       -0.1651782270
 C          0.1434015945        0.9580191620        0.7035157311
 C         -1.2159294840        0.8273071664        0.9228007044
 H         -4.3799270051        1.7981692353       -0.3687929820
 H         -4.6165259246        1.1994047480       -1.9012704257
 H         -3.0774561835        1.3012480591       -1.2780250614
 H         -3.8801844041       -1.0171032200       -1.2318443142
 H         -5.2464650134       -0.4909886952       -0.2741338287
 H         -3.5557667100       -1.4687427346        1.2313108657
 H         -3.6792195462        0.2391659256        1.5544021034
 H         -1.6586506453       -2.2788519333       -0.2943302446
 H          0.7707046952       -2.0374303961       -0.6852890180
 H          0.6646444872        1.8605798535        0.9867662646
 H         -1.7642345427        1.6327590166        1.3836096249
  21
        -29.29112207
 N         -5.5218042158        0.2100796121       -0.2488607006
 C         -4.0840969862        0.0430710319        0.1156059811
 C         -3.1365110043        0.4555839781       -1.0070526897
 C         -1.6866857876        0.2878472880       -0.6521494983
 C         -1.0271458016       -0.9061883015       -0.9112140341
 C          0.3031879180       -1.0664103153       -0.5687443582
 C          0.9803301322       -0.0359514705        0.0393086231
 Br         2.7864585858       -0.2520598470        0.5005512368
 C          0.3443616474        1.1521530525        0.3115485768
 C         -0.9859796116        1.3129646928       -0.0307988117
 H         -5.7666808251       -0.3621882406       -1.0702354212
 H         -5.7354720616        1.1911652095       -0.4809620224
 H         -6.1475989683       -0.0698826029        0.5220557102
 H         -3.8973015238       -1.0016578456        0.3913831194
 H         -3.8661736359        0.6287318197        1.0167474765
 H         -3.3242234874        1.4984762006       -1.2837989252
 H         -3.3590708275       -0.1243563417       -1.9089631207
 H         -1.5593684356       -1.7128429079       -1.3887219478
 H          0.8192801651       -1.9924708374       -0.7751174025
 H          0.8925236669        1.9507578467        0.7894400496
 H         -1.4860558207        2.2440490980        0.1811917754
  21
        -29.28841811
 N         -5.5571889599        0.1295292572       -0.6678392362
 C         -4.1070848930       -0.2170269726       -0.7465427569
 C         -3.2440151620        0.6574052142        0.1608915798
 C         -1.7607692553        0.3951308795        0.1229159479
 C         -1.1888125426       -0.6151062084       -0.6411794682
 C          0.1797533727       -0.8169511533       -0.6399691730
 C          0.9897226851       -0.0127970294        0.1255433247
 Br         2.8460502184       -0.2880361188        0.1256041851
 C          0.4479292883        0.9915556603        0.8911185435
 C         -0.9201937471        1.1931384587        0.8890631784
 H         -5.9148949601        0.0185664006        0.2923197802
 H         -6.1286734467       -0.4697766032       -1.2825970742
 H         -5.7221771199        1.1076493864       -0.9486655337
 H         -3.7711900943       -0.1198667429       -1.7856630165
 H         -3.9757038361       -1.2728340062       -0.4816673802
 H         -3.5905456169        0.5489117833        1.1942844293
 H         -3.4170061635        1.7087444593       -0.0927939871
 H         -1.8126142429       -1.2530368853       -1.2441132385
 H          0.6228895606       -1.6017403460       -1.2352148887
 H          1.0977642738        1.6143828478        1.4881946372
 H         -1.3452219293        1.9805787954        1.4905711525
  21
        -29.28828990
 N         -4.6972348313        1.3362387414       -0.0685326746
 C         -4.1648695267        0.1495021980       -0.8026534668
 C         -3.3261315542       -0.7850860890        0.0844529686
 C         -1.8411228810       -0.5373625815        0.0584332655
 C         -0.9614702793       -1.6029344913        0.2074404141
 C          0.4067121294       -1.4006546646        0.2106889358
 C          0.9087134286       -0.1288059876        0.0718402435
 Br         2.7650716363        0.1461076605        0.0750090262
 C          0.0590608985        0.9425751738       -0.0674818903
 C         -1.3085766469        0.7381163431       -0.0702835105
 H         -5.3493916087        1.0454212558        0.6747870034
 H         -5.2143527178        1.9715630551       -0.6953010049
 H         -3.9515503135        1.8849968435        0.3827459121
 H         -3.5720337183        0.4749770013       -1.6659561851
 H         -5.0184243237       -0.3949196779       -1.2292206980
 H         -3.5026816689       -1.8266960568       -0.2099507285
 H         -3.6785808388       -0.7150007987        1.1189656731
 H         -1.3531782793       -2.6005877401        0.3243224885
 H          1.0878022675       -2.2314821266        0.3230521106
 H          0.4702991980        1.9357400014       -0.1722931861
 H         -1.9675232414        1.5808921599       -0.1801174955
  21
        -29.28820184
 N         -4.7255308496        1.3333248680       -0.1250957486
 C         -4.1572222857        0.1319682006       -0.8062919774
 C         -3.3264823045       -0.7601536751        0.1320071276
 C         -1.8402476879       -0.5242709525        0.0889891759
 C         -0.9639943673       -1.5978355497        0.1945275536
 C          0.4050137413       -1.4013701950        0.1849214188
 C          0.9108879582       -0.1281036525        0.0760611300
 Br         2.7683796846        0.1389034842        0.0629892779
 C          0.0644844002        0.9504978226       -0.0211056998
 C         -1.3040109555        0.7520751910       -0.0109344536
 H         -5.3767816712        1.0565267095        0.6243158515
 H         -5.2526646266        1.9294270604       -0.7813256692
 H         -3.9968836622        1.9187433134        0.3075635240
 H         -3.5472371463        0.4401113526       -1.6640454590
 H         -4.9908920560       -0.4394227439       -1.2369364057
 H         -3.5130318362       -1.8151628881       -0.1021569748
 H         -3.6760940996       -0.6289646695        1.1615289834
 H         -1.3584831062       -2.5967881241        0.2886521007
 H          1.0839243090       -2.2377010953        0.2647842537
 H          0.4791071706        1.9443908836       -0.1032588438
 H         -1.9616211461        1.5998268280       -0.0858679228
  21
        -29.28778479
 N         -5.0627804094       -0.6697856993       -0.5723737653
 C         -4.1345894451        0.1950745813        0.2129891447
 C         -3.1625916855        0.9929150520       -0.6783841959
 C         -1.7180442956        0.6628228053       -0.4303655703
 C         -1.0781104604       -0.3235290391       -1.1684779837
 C          0.2470844749       -0.6374099699       -0.9277992348
 C          0.9382253003        0.0285714646        0.0565522126
 Br         2.7373864455       -0.3948816242        0.3807665262
 C          0.3212463297        1.0030073003        0.8048176612
 C         -1.0037177258        1.3178914209        0.5638197175
 H         -5.6445885823       -0.1059713723       -1.2094922099
 H         -5.7012759655       -1.2004269667        0.0395479449
 H         -4.5446084192       -1.3524644730       -1.1453180598
 H         -3.5642422251       -0.4316869628        0.9099063162
 H         -4.7250799472        0.8690084828        0.8480422905
 H         -3.3102288998        2.0714898004       -0.5468515353
 H         -3.3966028537        0.8054970338       -1.7318752832
 H         -1.6211992152       -0.8440906272       -1.9402329863
 H          0.7485084951       -1.3994473461       -1.5060287921
 H          0.8801181089        1.5158121767        1.5738033711
 H         -1.4889070693        2.0827500332        1.1483376439
