  21
        -29.29370423
 N         -4.0576318748        1.0868623624       -1.0415957957
 C         -4.1867173945       -0.2857390031       -0.4745244263
 C         -3.3590010987       -0.4821734859        0.7951362415
 C         -1.8820427318       -0.3383854468        0.5682768659
 C         -1.1558456978       -1.3664294025       -0.0174208968
 C          0.2033806307       -1.2352807927       -0.2366080717
 C          0.8440858867       -0.0742847663        0.1259898594
 Br         2.6897047758        0.1003475257       -0.1651782270
 C          0.1434015945        0.9580191620        0.7035157311
 C         -1.2159294840        0.8273071664        0.9228007044
 H         -4.3799270051        1.7981692353       -0.3687929820
 H         -4.6165259246        1.1994047480       -1.9012704257
 H         -3.0774561835        1.3012480591       -1.2780250614
 H         -3.8801844041       -1.0171032200       -1.2318443142
 H         -5.2464650134       -0.4909886952       -0.2741338287
 H         -3.5557667100       -1.4687427346        1.2313108657
 H         -3.6792195462        0.2391659256        1.5544021034
 H         -1.6586506453       -2.2788519333       -0.2943302446
 H          0.7707046952       -2.0374303961       -0.6852890180
 H          0.6646444872        1.8605798535        0.9867662646
 H         -1.7642345427        1.6327590166        1.3836096249
