42
 energy: -62.985146559415 gnorm: 0.000661269621 xtb: 6.5.1 (fef0646)
N            2.33353927532488        0.39637578108920       -0.92840495832672
C            2.88656514715299       -0.52020427431124        0.09452163468307
C            3.43542689270331        0.29695699270594        1.25848597530375
O            4.44357862378016        1.13808242638320        0.70200414942249
C            5.18201304540327        1.92588663588041        1.52672544362867
C            4.97881192531377        2.04442830858678        2.87949610651972
C            5.78732050160108        2.88985181737786        3.63700080631593
C            6.79873258672957        3.64843243613388        3.07798400134353
C            7.00517654035635        3.56619484445672        1.67375512204531
C            7.99572455905631        4.35110764548984        1.02399158206435
C            8.19665655172692        4.18262321181775       -0.33608588929949
C            7.44200059753515        3.27997275415904       -1.08156420540477
C            6.45649145750375        2.54612618924940       -0.48046552153948
C            6.21340237324430        2.67996281986382        0.89867337692227
C            7.65337252789591        4.51607053746219        3.87637446447538
C            7.57216889086045        4.56608248853733        5.25783563803366
C            8.37785042297840        5.41956570170775        6.01069790786415
C            9.27312843209894        6.24734644014146        5.39190779589463
C            9.40513564827794        6.22813167721337        3.98945511980636
C           10.32307190601711        7.07981507856728        3.34405732424248
C           10.44233690469807        7.05901524289709        1.98223119870788
C            9.67595506503391        6.17537767311866        1.22275873013148
C            8.77325511628716        5.30392458819373        1.80785802159198
C            8.60467380947883        5.34248664245121        3.21864005261215
H            2.10921842391577       -0.10526398734016       -1.79487682905134
H            3.04243552693502        1.11534705961369       -1.12558667006007
H            1.48718864416604        0.86582895631029       -0.58465462915569
H            3.70272225490284       -1.09353303199715       -0.34487469494157
H            2.11740891803531       -1.20163418922010        0.45354733593758
H            3.86152096607100       -0.36780536032698        2.01530916177268
H            2.65346507711204        0.90809068431487        1.72277818284843
H            4.20553477083389        1.49229293369952        3.38771353074174
H            5.58973958067123        2.94138401553080        4.69476410594431
H            8.95901127634983        4.74631403791644       -0.84857654753482
H            7.64285536525920        3.17081004277433       -2.13686863223778
H            5.87311014581620        1.84251378679218       -1.04920300197041
H            6.87888583767572        3.93638486246661        5.79098405694214
H            8.28293308450581        5.42450440238145        7.08641562545325
H            9.89286159800084        6.92256085449696        5.96362469684836
H           10.92286326790598        7.74877166442615        3.94385636213134
H           11.13517241392267        7.72097572493357        1.48388937705233
H            9.80803404686308        6.19441388405640        0.15330469224166
