40
 energy: -55.249130613780 gnorm: 0.000307318881 xtb: 6.5.1 (fef0646)
N           11.50341883350525       -2.18596065731032        1.42677006530535
C           12.94600129060050       -2.08981066646257        1.22836411675841
C           13.69843931138618       -1.47887497168310        2.41558722401837
C           13.70438926961873       -2.40646784305020        3.64048543480281
C           13.14444568586399       -1.73892838737720        4.90574251705375
N           11.84773145761453       -1.14624962548570        4.67988253098873
C           11.59430064385950        0.23848053807718        5.07355435248067
C           10.00417489567630        0.36195825497826        4.88492787284540
C           10.06670207931129        1.00431864668617        3.55061801749262
C           10.54952532801657        2.28951418945870        3.54054153472205
C           11.99402682892627        2.23506794186602        3.49499072343825
C           12.44193897576733        1.22603061906533        4.27272381919435
C           10.68762115529396       -1.88878109172286        4.76782174221176
C            9.56296008641005       -1.06339068232658        4.89526318952098
C            8.29526278159571       -1.59151657890465        4.95304956896076
C            8.14223724022035       -2.97253825793542        4.89830055754739
C            9.25128970369859       -3.79136634210455        4.78548479282760
C           10.53487642417892       -3.26683969436010        4.71838791692285
Cl          10.27345776211843       -3.65913947383226       -0.76964020712973
H           10.85144578293531       -2.95401085297427        0.26489008598605
H           11.08547969202387       -1.26277068032621        1.48594062143077
H           11.28058248480418       -2.68391859153271        2.28386035150247
H           13.11354511817219       -1.48529601207788        0.33446190155206
H           13.32070406557579       -3.09679884823334        1.02908656133502
H           13.21957005008733       -0.53170308159424        2.67455072188383
H           14.71932817822121       -1.25699781020411        2.10419362213107
H           14.71854061973704       -2.74270410447942        3.85992279437078
H           13.11523682855819       -3.29734397246316        3.41904845277272
H           13.83079155770011       -0.95446874709238        5.23071246751798
H           13.08854252764189       -2.48729919364398        5.70924165238004
H           11.86151163849078        0.36380621162786        6.14115687810674
H            9.55227583264764        0.99196213763440        5.65039311170532
H           10.51120124749025        0.33697403446139        2.81388653635266
H           10.08949123985285        3.07755441402956        4.12165321469074
H           12.65592457342828        2.98867586860888        3.09204394683099
H           13.50396076613608        1.14985558143755        4.47357518635076
H            7.43647666011876       -0.94366389616690        5.04548973747700
H            7.15555245125004       -3.40595257074700        4.94740479666584
H            9.12271605933817       -4.86299705512281        4.75051918650454
H           11.38295287141849       -3.93055874839478        4.64926240248911
