25
 energy: -30.681630263441 gnorm: 0.000486097188 xtb: 6.5.1 (fef0646)
N            1.31551464424457       -0.07080873481621       -0.58941407313313
C            2.59459682817338        0.11443803563275        0.12838138037107
C            2.86112989469243       -0.97872131356490        1.16488086296016
C            2.67402572262580       -2.38346113044475        0.58800190591805
C            3.05281020808110       -3.43176720786874        1.63144007086651
C            2.18249149249465       -3.26876607491119        2.87404498232399
C            2.34035148080833       -1.86556371316624        3.45173017609434
C            1.98050408513585       -0.81399399696330        2.40511303447940
Cl          -1.35605543753995       -0.79010749775751        0.73219539729360
H            1.08075598188260        0.75896984508739       -1.13797386664944
H            0.50241836538209       -0.25212304925368        0.04624283653565
H            1.36548372555174       -0.87900492805963       -1.21361095321114
H            2.57270761021883        1.07798698963239        0.63681156736530
H            3.39991789301282        0.12008157006433       -0.60738492954831
H            3.90454356600769       -0.87307546687277        1.48056616221127
H            3.29270321645720       -2.51625950353460       -0.30109235652725
H            1.62552553749509       -2.53720345198833        0.32671307045840
H            4.10300212917345       -3.31756270029281        1.90957867380016
H            2.92191075096473       -4.43410238828631        1.21873028652734
H            2.45147435076605       -4.01557478377503        3.62447517917462
H            1.13439369397550       -3.42764959227189        2.60643848690396
H            3.37447671680560       -1.72265147400392        3.77575401083035
H            1.69724041011811       -1.75158471813691        4.32734121239863
H            2.11545594952896        0.18158105484757        2.83221877616599
H            0.92803118394339       -0.92427576929565        2.13798810639029
