16
 energy: -23.092958521590 gnorm: 0.000460232923 xtb: 6.5.1 (fef0646)
O            3.52689638056535       -1.25329488711605       -1.20383356228254
C            2.52361188715977       -0.72254286440298       -0.35570464790380
C            2.93877869613859       -0.91409771538202        1.10501943518105
C            4.38950610667097       -0.51949719418676        1.34944918851207
N            4.61912118563688        0.88809469702167        0.96474509444090
Cl           2.34622869313299        2.71035240762248        1.94847693824962
H            3.19730426919200       -1.30028239846716       -2.10837388967086
H            1.56566698727466       -1.22879850031251       -0.52087952472776
H            2.37336384958712        0.34611076323157       -0.56141161886736
H            2.81441475609563       -1.95954292143087        1.38282896139211
H            2.28085176031622       -0.30268198892163        1.72227295219713
H            5.04117874324877       -1.16112014270952        0.75595538798750
H            4.61347595222007       -0.64119091909109        2.40760198822194
H            4.57331474660903        0.97846203985931       -0.05268653435378
H            5.52479313202925        1.22498419056427        1.29558810922998
H            3.86730285412273        1.50418543372159        1.36244172239443
