29
 energy: -44.403118571679 gnorm: 0.000832136115 xtb: 6.5.1 (fef0646)
N            2.18436071037205        0.31297390814758        0.30819158518671
C            2.84350728726157       -0.42231993847158       -0.78488298666525
C            3.31856366232487       -1.78594772745134       -0.29682606075880
O            4.32394099493950       -1.55015220313193        0.68148022309536
C            4.96371767111457       -2.61573714865214        1.23903778836472
C            4.64075027238905       -3.92923124045379        1.00219691757931
C            5.34200989024138       -4.95907509420494        1.64800064326948
C            6.35336617501428       -4.68317660579863        2.52107802731032
C            6.72117003524647       -3.34557285666562        2.78135097551284
C            7.76853163413950       -3.01996739343447        3.66793315192062
C            8.11795092040318       -1.71810280920217        3.89628438096410
C            7.43726920448454       -0.68007822869138        3.24375218671492
C            6.41348992423396       -0.96115060175149        2.38154138897121
C            6.02717661750352       -2.29306010137121        2.13277600538825
Cl           1.37361212644757        3.08695245825760       -0.62251774358088
H            1.92116891010480        1.28593575894994       -0.00267566132054
H            2.82312954759300        0.39422583845763        1.10443685314077
H            1.32596585926670       -0.15447023808753        0.61084454900013
H            3.69835391483964        0.15967857926592       -1.12685274152355
H            2.14770850892877       -0.54280938251629       -1.61278912727901
H            3.73278570238676       -2.35617804846592       -1.13509739230761
H            2.48970175385118       -2.35085649566050        0.14596029350478
H            3.84886361693289       -4.19929468306857        0.32344746472722
H            5.06278840402419       -5.98162266891532        1.44299982708486
H            6.88735956893822       -5.47787141782250        3.01991072187269
H            8.29336504707048       -3.82416640891590        4.16323924333867
H            8.92273627985574       -1.48110289817963        4.57642683087835
H            7.72924982410137        0.34328856491466        3.42627213227147
H            5.89470593603311       -0.16651091704939        1.86994052326675
