  25
  -30.633144670000000       0.14092068054215526      !mtd1
 N          1.4410061760        0.8650043978       -0.6304594781
 C          0.6402597286       -0.2173454957       -0.0780725670
 C         -0.8639413771       -0.0863212040       -0.3591924184
 C         -1.4862252217        1.1410882257        0.3455607196
 C         -2.9900871962        1.2628445839        0.0437051036
 C         -3.7405195819       -0.0206250713        0.4386909570
 C         -3.1317864499       -1.2501837656       -0.2571052446
 C         -1.6286855482       -1.3679783970        0.0472337943
 Cl         4.4842685402       -0.1887271292        0.2101605670
 H          1.2522862923        0.9515700543       -1.6228771137
 H          3.2625562402        0.2402956303       -0.1308870508
 H          1.1649018405        1.7492829115       -0.2186958280
 H          0.8082020586       -0.2779777519        1.0027511841
 H          1.0118547515       -1.1672516338       -0.4821446164
 H         -0.9952097041        0.0517499250       -1.4439919902
 H         -0.9573470283        2.0587112068        0.0601922697
 H         -1.3338989635        1.0404281226        1.4259289004
 H         -3.1303431711        1.4495016158       -1.0280175458
 H         -3.4194748503        2.1376908364        0.5508371914
 H         -4.8113965988        0.0671883057        0.2098113984
 H         -3.6843692662       -0.1539013518        1.5259479786
 H         -3.2767657935       -1.1630775355       -1.3408849677
 H         -3.6615881389       -2.1667891115        0.0357833045
 H         -1.1925570932       -2.2440974128       -0.4490164983
 H         -1.4828027133       -1.5382379569        1.1194721674
  25
  -30.633111719999999       0.13609180063788201      !mtd6
 N          1.4460354524       -0.5348009768       -0.9399107654
 C          0.6427943305        0.2362874108       -0.0029347966
 C         -0.8623042486        0.2181642561       -0.3079522214
 C         -1.6289178188        1.2297715975        0.5768983126
 C         -3.1337788723        1.2325683188        0.2594846096
 C         -3.7323665185       -0.1757503965        0.4163057704
 C         -2.9814158698       -1.1930228154       -0.4598193381
 C         -1.4751919269       -1.1915149269       -0.1448246669
 Cl         4.4703279759        0.1114625222        0.2921104241
 H          1.1737275283       -1.5108201117       -0.9135455692
 H          3.2568679962       -0.1520516354       -0.2085290687
 H          1.2562542702       -0.2207968848       -1.8850260260
 H          1.0077832329        1.2700090200        0.0004461829
 H          0.8160169065       -0.1344925641        1.0140256566
 H         -0.9992539817        0.5206564014       -1.3580953302
 H         -1.1996279896        2.2337668075        0.4655116985
 H         -1.4752402791        0.9626158191        1.6284469542
 H         -3.2867242776        1.5796446929       -0.7697003976
 H         -3.6645989929        1.9556765118        0.8936971671
 H         -4.8050824887       -0.1727678202        0.1792568524
 H         -3.6664114633       -0.4832729413        1.4671084991
 H         -3.1307025314       -0.9410877668       -1.5169171743
 H         -3.4036251331       -2.1997228566       -0.3374296470
 H         -0.9465663342       -1.9165539454       -0.7752557406
 H         -1.3134776554       -1.5278270629        0.8849874730
  25
  -30.633104880000001       0.13511031731001469      !mtd4
 N          1.4456500478       -0.5463746255       -0.9307505817
 C          0.6428180500        0.2275626903        0.0042968603
 C         -0.8616431783        0.2137967472       -0.3041753696
 C         -1.6276131749        1.2264985299        0.5799385937
 C         -3.1316035902        1.2336004856        0.2586838795
 C         -3.7342149999       -0.1731652792        0.4136564385
 C         -2.9842611384       -1.1919518111       -0.4615789182
 C         -1.4785311778       -1.1945135059       -0.1441109269
 Cl         4.4720230666        0.1223823645        0.2843207915
 H          1.2554539901       -0.2352807084       -1.8768069314
 H          3.2574579271       -0.1503055732       -0.2090085062
 H          1.1733475242       -1.5224554762       -0.9012695867
 H          1.0109503892        1.2601957027        0.0080131829
 H          0.8126868170       -0.1433040562        1.0218886039
 H         -0.9953260658        0.5178354900       -1.3543044955
 H         -1.1953268667        2.2294639999        0.4709303043
 H         -1.4773968702        0.9575901654        1.6315274449
 H         -3.2807987580        1.5810638568       -0.7709209224
 H         -3.6621703294        1.9581322675        0.8914652879
 H         -4.8064710819       -0.1672367954        0.1747045542
 H         -3.6709405579       -0.4813536493        1.4644087374
 H         -3.1312242451       -0.9394099462       -1.5188552829
 H         -3.4092449362       -2.1976020027       -0.3401168905
 H         -0.9507333547       -1.9196643945       -0.7751271625
 H         -1.3190960543       -1.5330750623        0.8853157401
  25
  -30.633101400000001       0.13461368611587643      !mtd4
 N          1.4411145261        0.8820550568       -0.6274187569
 C          0.6440548621       -0.2049057740       -0.0787356818
 C         -0.8604440740       -0.0798124198       -0.3605077615
 C         -1.4871158905        1.1477164069        0.3402025906
 C         -2.9921945455        1.2619002434        0.0409617411
 C         -3.7365159466       -0.0238561605        0.4401369862
 C         -3.1234201447       -1.2523133274       -0.2536261127
 C         -1.6198681711       -1.3631504848        0.0504844126
 Cl         4.4743434048       -0.2056795913        0.2093580466
 H          1.1645085560        1.7637626195       -0.2105747348
 H          3.2570716252        0.2369502448       -0.1297612307
 H          1.2501725565        0.9732845406       -1.6189673181
 H          0.8113163900       -0.2676598404        1.0020734435
 H          1.0198770348       -1.1522748292       -0.4848679126
 H         -0.9921737487        0.0541655774       -1.4457668752
 H         -0.9630193980        2.0663207449        0.0491589636
 H         -1.3318114005        1.0528949778        1.4206774312
 H         -3.1355454968        1.4460367613       -1.0307943125
 H         -3.4244230799        2.1357289107        0.5474321835
 H         -4.8081058849        0.0586444763        0.2126213494
 H         -3.6781722282       -0.1542990309        1.5276260021
 H         -3.2688823971       -1.1674903478       -1.3375143919
 H         -3.6494488853       -2.1705847306        0.0408502956
 H         -1.1803232172       -2.2393359696       -0.4426200264
 H         -1.4730427043       -1.5288965439        1.1232997449
  25
  -30.632382889999999        6.2933934434573097E-002 !mtd6
 N          1.2406691377        0.0148518683        0.7356309914
 C          0.6459690282       -0.0013893832       -0.5914335621
 C         -0.8911972358       -0.0097684866       -0.6003482092
 C         -1.4963850355        1.2559309375        0.0468163791
 C         -3.0311522433        1.2542834509       -0.0648524741
 C         -3.6293031479       -0.0132422408        0.5720404880
 C         -3.0172996809       -1.2861326702       -0.0405198148
 C         -1.4825644338       -1.2689301791        0.0709426246
 Cl         4.4593553289        0.0200349797       -0.1138641370
 H          0.9215775681        0.8280833234        1.2492144150
 H          3.1664005621        0.0180105450        0.2338360059
 H          0.9305042281       -0.7906991060        1.2673096869
 H          1.0252601049       -0.8768615590       -1.1314111830
 H          1.0161659489        0.8679512555       -1.1490462277
 H         -1.2266338391       -0.0216235271       -1.6511416697
 H         -1.0623880737        2.1590086864       -0.4009636861
 H         -1.2127166745        1.2860735768        1.1042325784
 H         -3.3183417273        1.2997163310       -1.1224007230
 H         -3.4556954439        2.1586670905        0.3919367906
 H         -4.7231757006       -0.0201736132        0.4710521730
 H         -3.4367487118       -0.0018488690        1.6517682816
 H         -3.3039201114       -1.3549645638       -1.0970027720
 H         -3.4319568210       -2.1860859873        0.4335356403
 H         -1.0389199167       -2.1754675703       -0.3593459905
 H         -1.1987423165       -1.2756885879        1.1283675092
  25
  -30.632124930000000        4.7899907585156928E-002 !mtd2
 N          1.9258712368       -0.6981851600        1.3888735872
 C          0.8370495330        0.2402299064        1.6329036379
 C         -0.2917852678        0.1440144123        0.5955637935
 C         -1.3020412982        1.3056888314        0.7466428125
 C         -2.4126828716        1.2282164335       -0.3144411839
 C         -3.1403685309       -0.1257835307       -0.2526828930
 C         -2.1475380600       -1.2917245281       -0.3996407301
 C         -1.0345533382       -1.2096203438        0.6597440378
 Cl         2.8198600824        0.2106191306       -1.6821228923
 H          1.5880924364       -1.6509379956        1.4652263226
 H          2.4744322420       -0.1600525933       -0.4428015027
 H          2.6439705655       -0.6016984260        2.0994800435
 H          1.2453724236        1.2576248722        1.6249729652
 H          0.4192961843        0.0932147689        2.6366673047
 H          0.1605958204        0.2242223830       -0.4051799101
 H         -0.7808615447        2.2706831643        0.7038088671
 H         -1.7451013627        1.2577612763        1.7476903488
 H         -1.9720851578        1.3585536567       -1.3104166481
 H         -3.1220634800        2.0588659965       -0.1976048973
 H         -3.9250806777       -0.1823927130       -1.0194224100
 H         -3.6634697276       -0.2133148108        0.7073953818
 H         -1.6980781098       -1.2612747758       -1.3997867008
 H         -2.6684482833       -2.2571851744       -0.3430887981
 H         -0.3286282964       -2.0410684773        0.5462544488
 H         -1.4666681326       -1.3269919872        1.6593764207
  25
  -30.632123750000002        4.7840133738483996E-002 !mtd4
 N          1.9267203066       -0.6883643018        1.3941786709
 C          0.8376073444        0.2511974785        1.6324581735
 C         -0.2905214090        0.1496696672        0.5948529863
 C         -1.3034623757        1.3094186364        0.7429120537
 C         -2.4141603547        1.2264952479       -0.3176759991
 C         -3.1388408934       -0.1288754989       -0.2515834611
 C         -2.1434662209       -1.2928964863       -0.3962969414
 C         -1.0299368061       -1.2056780581        0.6621308022
 Cl         2.8159429482        0.1990518340       -1.6840825916
 H          2.6443068098       -0.5880711111        2.1047347111
 H          2.4726261992       -0.1631294863       -0.4416615997
 H          1.5890595517       -1.6407403265        1.4756347598
 H          1.2458016049        1.2685885887        1.6196999014
 H          0.4191352824        0.1091897171        2.6366585992
 H          0.1620232292        0.2285205313       -0.4059224862
 H         -0.7845415767        2.2755090553        0.6973164824
 H         -1.7462031296        1.2632207071        1.7441801806
 H         -1.9739783189        1.3546200744       -1.3141263863
 H         -3.1252517125        2.0560212086       -0.2033037206
 H         -3.9242565298       -0.1893228698       -1.0173054773
 H         -3.6606782463       -0.2149655935        0.7093201437
 H         -1.6947720146       -1.2639547353       -1.3968384273
 H         -2.6621735949       -2.2593742974       -0.3369690487
 H         -0.3219214986       -2.0354531836        0.5493926460
 H         -1.4608245225       -1.3224430640        1.6623642335
  25
  -30.632122649999999        4.7784479534790238E-002 !mtd4
 N          1.8842598367        0.8572565989        1.3556317485
 C          0.8341117594       -0.1097193556        1.6520632989
 C         -0.2888258815       -0.1281718195        0.6041133259
 C         -1.0804699749        1.1990034119        0.5679393738
 C         -2.1878835497        1.1650861363       -0.4998497129
 C         -3.1389380064       -0.0230558767       -0.2751705899
 C         -2.3621964620       -1.3503950822       -0.2376320011
 C         -1.2575250096       -1.3120502172        0.8318297277
 Cl         2.8351328676       -0.1794164777       -1.6569276702
 H          1.5066169362        1.7978843869        1.3741865845
 H          2.4664403750        0.2434683992       -0.4412631529
 H          2.6017305071        0.8335656911        2.0729823045
 H          0.4021502925        0.0826386984        2.6411313102
 H          1.2853686742       -1.1079890427        1.7116386450
 H          0.1742884273       -0.2622102569       -0.3859073369
 H         -0.4038036526        2.0454712468        0.3983092358
 H         -1.5237277865        1.3716838441        1.5549579337
 H         -1.7303058251        1.0803333001       -1.4931192846
 H         -2.7438141660        2.1125045657       -0.5145334311
 H         -3.9198540900       -0.0494864200       -1.0473967711
 H         -3.6714899068        0.1128461311        0.6740287555
 H         -1.9095562431       -1.5340866344       -1.2197471781
 H         -3.0417274271       -2.1962373756       -0.0661161120
 H         -0.7018243280       -2.2577937717        0.8602909840
 H         -1.7096338771       -1.2096873674        1.8243338655
  25
  -30.632118420000001        4.7571066351800910E-002 !mtd4
 N          1.8804301240        0.8803296114        1.3423070555
 C          0.8331737847       -0.0873048405        1.6465962039
 C         -0.2913320883       -0.1151497051        0.6004842117
 C         -1.0912559286        1.2070727818        0.5631349559
 C         -2.2012800069        1.1640160108       -0.5016031863
 C         -3.1443692231       -0.0294402449       -0.2717288501
 C         -2.3592830253       -1.3518221722       -0.2339366455
 C         -1.2520756694       -1.3046801532        0.8325440064
 Cl         2.8464654103       -0.2061481887       -1.6478589991
 H          2.5963757564        0.8669143413        2.0614544390
 H          2.4714962692        0.2368342394       -0.4413122407
 H          1.4994077797        1.8197141327        1.3497617758
 H          0.4022154312        0.1100591550        2.6351148953
 H          1.2872874740       -1.0839295075        1.7116634942
 H          0.1710662428       -0.2483751482       -0.3899808604
 H         -0.4202510712        2.0572812914        0.3897623989
 H         -1.5329670674        1.3794336285        1.5509069900
 H         -1.7458670470        1.0798854356       -1.4959186325
 H         -2.7630938758        2.1079509314       -0.5168514985
 H         -3.9275132114       -0.0621972371       -1.0414532421
 H         -3.6747732039        0.1050521371        0.6788742068
 H         -1.9080745207       -1.5343892674       -1.2169198001
 H         -3.0330746698       -2.2015851974       -0.0591755115
 H         -0.6903440822       -2.2468608435        0.8609041642
 H         -1.7021474556       -1.2036775262        1.8261102996
  25
  -30.631764260000001        3.2702595296170395E-002 !mtd2
 N          1.8320439464        0.9261191289       -1.3311194986
 C          0.7983826215        1.6006500314       -0.5547340903
 C         -0.5539635412        0.8744983519       -0.5916225930
 C         -1.6420328357        1.6570806005        0.1805300822
 C         -3.0000186815        0.9370117045        0.1258182749
 C         -2.8850050815       -0.4977155653        0.6690118519
 C         -1.8072194399       -1.2897268760       -0.0911735963
 C         -0.4503572985       -0.5659884406       -0.0437092226
 Cl         2.8700741842       -1.4816858109        0.7200660771
 H          2.6429572390        1.5275814010       -1.4422023102
 H          2.4672026911       -0.5101779862       -0.1078818069
 H          1.4877179093        0.7472012541       -2.2676554379
 H          0.6695811173        2.6318543196       -0.9065919858
 H          1.1330600737        1.6790235235        0.4862172334
 H         -0.8730554782        0.8051382750       -1.6436484766
 H         -1.7207953817        2.6810740138       -0.2067038976
 H         -1.3241069601        1.7636693392        1.2237286885
 H         -3.3517512349        0.9048364476       -0.9126160684
 H         -3.7641261561        1.5031761619        0.6757817476
 H         -3.8544253732       -1.0122750715        0.6209251982
 H         -2.6256401639       -0.4626512776        1.7341643767
 H         -2.1162879857       -1.4126556308       -1.1364017879
 H         -1.7179271901       -2.3089653742        0.3086238223
 H          0.3105084352       -1.1269584642       -0.5998663702
 H         -0.0884959799       -0.5255146788        0.9892923063
  25
  -30.631692930000000        3.0325028770407454E-002 !mtd4
 N          1.8311423643        0.9072450744       -1.3539787664
 C          0.8014656834        1.5935077619       -0.5827294178
 C         -0.5527524734        0.8702102580       -0.6063050891
 C         -1.6307369263        1.6557017088        0.1769741711
 C         -2.9910376168        0.9390067990        0.1376700844
 C         -2.8735193023       -0.4958835992        0.6798926479
 C         -1.8064536388       -1.2906354536       -0.0923976794
 C         -0.4472369376       -0.5705277625       -0.0593862184
 Cl         2.8548759581       -1.4674705693        0.7460313324
 H          1.4838176841        0.7175735212       -2.2872945949
 H          2.4590682264       -0.5098652053       -0.1012391379
 H          2.6433349789        1.5051238760       -1.4745058279
 H          0.6740055506        2.6208910060       -0.9460330970
 H          1.1399135309        1.6831259963        0.4560775757
 H         -0.8825693660        0.8013915693       -1.6550727982
 H         -1.7111347010        2.6796811297       -0.2099519870
 H         -1.3012655795        1.7621193766        1.2166035253
 H         -3.3545378053        0.9075262268       -0.8967160976
 H         -3.7474533509        1.5071821768        0.6961286863
 H         -3.8447055766       -1.0080378232        0.6431478223
 H         -2.6017444955       -0.4612177257        1.7419658257
 H         -2.1273359350       -1.4120928730       -1.1342414962
 H         -1.7156355335       -2.3103407473        0.3058624847
 H          0.3062563353       -1.1335781600       -0.6235003086
 H         -0.0744653689       -0.5308963904        0.9697443919
  25
  -30.631690610000000        3.0250671770904979E-002 !mtd4
 N          1.8086638778       -0.0853155640       -1.6532623126
 C          0.8100410688       -1.0866017787       -1.2979899395
 C         -0.5551963035       -0.4787140981       -0.9455522053
 C         -0.4568453544        0.5189646015        0.2300882703
 C         -1.8272325101        1.1288704942        0.5721587571
 C         -2.8609936459        0.0316549702        0.8790505939
 C         -2.9709650592       -0.9635203484       -0.2889781042
 C         -1.5992209641       -1.5732521213       -0.6241151988
 Cl         2.8494482026        0.9866459284        1.3240022335
 H          2.6261157693       -0.5272508492       -2.0632680044
 H          2.4469911828        0.5549997554        0.1226626186
 H          1.4335792186        0.5259170461       -2.3697725118
 H          1.1766267403       -1.6609102999       -0.4402853644
 H          0.6886857709       -1.8110080212       -2.1141370812
 H         -0.9143607575        0.0811138081       -1.8236330628
 H          0.2730090166        1.3045016298       -0.0020445062
 H         -0.0561649348       -0.0049141071        1.1049615464
 H         -2.1776544088        1.7313723398       -0.2747511416
 H         -1.7413499685        1.8299964191        1.4135379577
 H         -3.8405498000        0.4717407781        1.1106740072
 H         -2.5605126480       -0.5059638203        1.7866499508
 H         -3.3626987293       -0.4445521200       -1.1723726421
 H         -3.7031562315       -1.7508662971       -0.0639699467
 H         -1.6743060644       -2.2832481205       -1.4573861035
 H         -1.2403893896       -2.1609337367        0.2278358250
  25
  -30.631688409999999        3.0180329251745155E-002 !mtd1
 N          1.8079141036       -0.0817117669       -1.6543324308
 C          0.8102140019       -1.0840563709       -1.2993951473
 C         -0.5553901413       -0.4774679452       -0.9461757209
 C         -0.4573133200        0.5204402477        0.2292901808
 C         -1.8280778880        1.1291924894        0.5719144949
 C         -2.8607338070        0.0311057157        0.8794472197
 C         -2.9703351003       -0.9643921204       -0.2883469665
 C         -1.5981876131       -1.5729401739       -0.6239713966
 Cl         2.8495695303        0.9832635489        1.3252184550
 H          1.4317891620        0.5302837831       -2.3696375087
 H          2.4466519700        0.5544409413        0.1230146661
 H          2.6252469712       -0.5225982478       -2.0657065681
 H          1.1775405876       -1.6585523393       -0.4421328207
 H          0.6892019498       -1.8080935984       -2.1159206714
 H         -0.9156372162        0.0819312006       -1.8240884462
 H          0.2717861323        1.3065555701       -0.0032774505
 H         -0.0557820466       -0.0029889125        1.1040418719
 H         -2.1794253110        1.7312780294       -0.2749088407
 H         -1.7424137765        1.8304995219        1.4131649997
 H         -3.8405824627        0.4703591663        1.1114110933
 H         -2.5593817913       -0.5060754614        1.7870172405
 H         -3.3628959028       -0.4459216678       -1.1716680784
 H         -3.7017362641       -1.7523463909       -0.0628982072
 H         -1.6729689470       -2.2832685798       -1.4569847209
 H         -1.2383943011       -2.1600036628        0.2280017728
  25
  -30.631674990000000        2.9754768001554761E-002 !mtd3
 N          1.8291490460        0.8953016980       -1.3668638733
 C          0.8033453550        1.5871158160       -0.5953693280
 C         -0.5526469351        0.8669787233       -0.6121568900
 C         -1.6246457078        1.6544121638        0.1773186867
 C         -2.9869761559        0.9412516639        0.1441369334
 C         -2.8705573986       -0.4947821874        0.6836584928
 C         -1.8089086328       -1.2911790576       -0.0944221805
 C         -0.4478644515       -0.5743309427       -0.0667007770
 Cl         2.8511453152       -1.4574135939        0.7585560330
 H          2.6417850513        1.4911631820       -1.4942003679
 H          2.4560744512       -0.5088171325       -0.0991655488
 H          1.4777281527        0.7008229205       -2.2976487226
 H          0.6773153699        2.6134586498       -0.9620928682
 H          1.1451411541        1.6797767337        0.4420725853
 H         -0.8882137823        0.7994719494       -1.6591928099
 H         -1.7042913514        2.6789975024       -0.2081544133
 H         -1.2896862510        1.7588975532        1.2153925803
 H         -3.3561835499        0.9124075292       -0.8882952824
 H         -3.7388090907        1.5105885430        0.7075802036
 H         -3.8431799813       -1.0044364244        0.6502071920
 H         -2.5942371603       -0.4625005555        1.7446313923
 H         -2.1348125708       -1.4106748972       -1.1349374278
 H         -1.7186805573       -2.3115583559        0.3022468773
 H          0.3021037379       -1.1386453265       -0.6342679074
 H         -0.0707865208       -0.5361732506        0.9609131325
  25
  -30.631106079999999        1.6296848748981983E-002 !mtd6
 N          1.6572794285       -1.2588871528       -0.7537189922
 C          0.7574351399       -0.6446186854       -1.7212232712
 C         -0.6073501766       -0.2523857907       -1.1320551390
 C         -0.4704915644        0.7192718409        0.0601617502
 C         -1.8489430242        1.1540474808        0.5870884939
 C         -2.6971975589       -0.0671450139        0.9848027523
 C         -2.8277157941       -1.0573935719       -0.1864449210
 C         -1.4429580369       -1.4806892544       -0.7072177318
 Cl         2.7914831987        1.2182732014        1.1582484985
 H          1.2114672425       -2.0657598884       -0.3330878351
 H          2.3497486342        0.2168737182        0.3875877712
 H          2.4864890071       -1.6151001798       -1.2200513559
 H          0.6063638998       -1.3174039272       -2.5745624809
 H          1.2484106603        0.2498193220       -2.1245252256
 H         -1.1832114889        0.2724946095       -1.9127529554
 H          0.1421443332        1.5853273228       -0.2208366072
 H          0.0812982272        0.2146673804        0.8605219377
 H         -2.3724894846        1.7221334227       -0.1914728555
 H         -1.7412927630        1.8474601752        1.4322938136
 H         -3.6875554416        0.2462419368        1.3422641748
 H         -2.2266182782       -0.5731380162        1.8366087220
 H         -3.3929636950       -0.5859120148       -0.9996236275
 H         -3.4180505223       -1.9355514257        0.1084733892
 H         -1.5282273766       -2.1908384445       -1.5392393110
 H         -0.9103755420       -2.0180459534        0.0840630852
  25
  -30.631065719999999        1.5615484483220053E-002 !mtd5
 N          1.6200369210        1.4581210966       -0.3697008167
 C          0.7525464064        1.0744296198       -1.4758682430
 C         -0.6045164629        0.5080014800       -1.0272181454
 C         -1.4923446508        1.5729156435       -0.3442537598
 C         -2.8670510472        0.9921443280        0.0305250865
 C         -2.7149942869       -0.2404365238        0.9398554070
 C         -1.8153683255       -1.3046227014        0.2862287964
 C         -0.4474912221       -0.7122537656       -0.0947484111
 Cl         2.8293000637       -1.4085833933        0.8139528262
 H          2.4375193913        1.9513448027       -0.7166252682
 H          2.3571036148       -0.2497761436        0.3385701721
 H          1.1390410140        2.1150832939        0.2333381763
 H          1.2782187082        0.3229389996       -2.0765682233
 H          0.5877881899        1.9323148465       -2.1409494840
 H         -1.1488314498        0.1636009967       -1.9225909229
 H         -1.5928879705        2.4562984524       -0.9876899048
 H         -0.9917026254        1.9262633695        0.5633678095
 H         -3.4014246933        0.7055319032       -0.8834035120
 H         -3.4954133490        1.7557304253        0.5089782382
 H         -3.6975646998       -0.6623083631        1.1916353655
 H         -2.2760007884        0.0669574166        1.8968483904
 H         -2.3066362723       -1.6925329301       -0.6144539751
 H         -1.6922965186       -2.1723105321        0.9484573774
 H          0.1994110936       -1.4668781067       -0.5592542399
 H          0.0758166299       -0.3935389598        0.8127701913
  25
  -30.630969799999999        1.4108267426281655E-002 !mtd3
 N          1.6528515245       -1.3184952190       -0.6456044047
 C          0.7807146962       -0.7255712746       -1.6512676689
 C         -0.5896573664       -0.2959498414       -1.1021897525
 C         -0.4611739224        0.6904251381        0.0789340634
 C         -1.8419970291        1.1589058660        0.5696573460
 C         -2.7242263698       -0.0395890996        0.9624147430
 C         -2.8480020475       -1.0416432524       -0.1993387328
 C         -1.4605198101       -1.5007571286       -0.6807464490
 Cl         2.7969578013        1.2936437508        1.0731450472
 H          2.4807779107       -1.7127662740       -1.0826717929
 H          2.3512993349        0.2377683821        0.3815578362
 H          1.1829545740       -2.0960834623       -0.1971689437
 H          0.6367851317       -1.4240875448       -2.4848865085
 H          1.2924732692        0.1480712540       -2.0738498981
 H         -1.1351605022        0.2285278297       -1.9046279664
 H          0.1728278690        1.5411349815       -0.2015149493
 H          0.0646430510        0.1881362270        0.8981197819
 H         -2.3361905394        1.7286841561       -0.2266239592
 H         -1.7387397802        1.8596449861        1.4093641798
 H         -3.7159636260        0.2984259162        1.2925949193
 H         -2.2841458200       -0.5442447214        1.8311451809
 H         -3.3827207329       -0.5682213733       -1.0318281423
 H         -3.4644250214       -1.9030859403        0.0914447625
 H         -1.5411220359       -2.2205465359       -1.5049191141
 H         -0.9581365246       -2.0381054013        0.1300489224
