  25
        -30.63314467
 N          1.4410061760        0.8650043978       -0.6304594781
 C          0.6402597286       -0.2173454957       -0.0780725670
 C         -0.8639413771       -0.0863212040       -0.3591924184
 C         -1.4862252217        1.1410882257        0.3455607196
 C         -2.9900871962        1.2628445839        0.0437051036
 C         -3.7405195819       -0.0206250713        0.4386909570
 C         -3.1317864499       -1.2501837656       -0.2571052446
 C         -1.6286855482       -1.3679783970        0.0472337943
 Cl         4.4842685402       -0.1887271292        0.2101605670
 H          1.2522862923        0.9515700543       -1.6228771137
 H          3.2625562402        0.2402956303       -0.1308870508
 H          1.1649018405        1.7492829115       -0.2186958280
 H          0.8082020586       -0.2779777519        1.0027511841
 H          1.0118547515       -1.1672516338       -0.4821446164
 H         -0.9952097041        0.0517499250       -1.4439919902
 H         -0.9573470283        2.0587112068        0.0601922697
 H         -1.3338989635        1.0404281226        1.4259289004
 H         -3.1303431711        1.4495016158       -1.0280175458
 H         -3.4194748503        2.1376908364        0.5508371914
 H         -4.8113965988        0.0671883057        0.2098113984
 H         -3.6843692662       -0.1539013518        1.5259479786
 H         -3.2767657935       -1.1630775355       -1.3408849677
 H         -3.6615881389       -2.1667891115        0.0357833045
 H         -1.1925570932       -2.2440974128       -0.4490164983
 H         -1.4828027133       -1.5382379569        1.1194721674
