37
 energy: -58.263114190630 gnorm: 0.000572772261 xtb: 6.5.1 (fef0646)
N            0.94776216302993       -1.54773195846898        1.33009905407972
C            2.16778691757669       -0.90678173704337        1.81037550346686
C            3.34718493088535       -1.28362624493532        0.90266364941101
O            4.55095181143100       -0.70582050510096        1.34241947451334
C            5.21864906940757       -1.23525996703102        2.40901791403213
C            6.35664455830609       -0.51491855352598        2.83165416466353
C            6.75851507492289        0.69258560806012        2.19136042451666
C            7.85229303417326        1.37413914029570        2.60536752868559
C            7.12081442796117       -1.00059652151005        3.91719680464487
C            6.74844056553306       -2.19881204401471        4.57586314939350
C            5.62006635314154       -2.88000494537261        4.12707060025242
C            4.86847735730051       -2.40852643078784        3.06665919361063
C            7.53989080630362       -2.66188572037568        5.66690702433971
C            8.63340865840868       -1.97999684342527        6.07778943557998
C            9.03556800322294       -0.77098051522109        5.43579417421380
C           10.16007185545844       -0.05252692956603        5.84311199024564
C           10.52302462352333        1.11662715400562        5.19884855251911
C            9.77827169883778        1.59678128993317        4.13819460290009
C            8.64494196996063        0.91134930208173        3.69534094891229
C            8.26564343082960       -0.28681141208457        4.34875193313985
Cl           0.46620930352505       -0.91531253355049       -1.51657026016504
H            0.14311269322751       -1.24400766230589        1.86738925704982
H            1.01814719420301       -2.55815601718918        1.39626678985371
H            0.68479427052424       -1.18656249652345       -0.20732781923891
H            2.40754637745072       -1.17535090159726        2.84916111568130
H            2.02444917040118        0.17473419763103        1.76704884222933
H            3.17777422958062       -0.87639248537903       -0.09682451186886
H            3.43295200492792       -2.37422232830029        0.81753815627591
H            6.16163987662050        1.04443514097670        1.36466655124077
H            8.14884921876654        2.28948033009214        2.11315951833747
H            5.32516927715786       -3.79668416311730        4.61763147109514
H            4.00752779069497       -2.98081852836894        2.75674999450843
H            7.24199161637413       -3.57755443831696        6.15833270269317
H            9.22931219682317       -2.33836213115634        6.90527854696914
H           10.74895271646933       -0.42008400794777        6.67142542934937
H           11.39755866994886        1.65921526588064        5.52827259517456
H           10.06893608308635        2.51082059325303        3.64035549769670
