  21
        -25.27011771
 N         -0.1499093705       -1.2620607288        1.1693328341
 C          0.6763440219       -1.8085607066        0.0586468163
 C          0.9859052497       -0.7748278182       -1.0293446009
 C          2.2660913019        0.0358087096       -0.7946815454
 C          2.2540888660        0.9353127598        0.4438605782
 C          1.1600130240        1.9921200960        0.4139253836
 Cl        -2.8671204319        0.4000258110       -0.2103718488
 H          0.3516397898       -0.5363320280        1.7032150650
 H         -0.4341022331       -1.9948934339        1.8413981962
 H         -1.0136500697       -0.8220573446        0.8005009666
 H          0.1395737585       -2.6615025955       -0.3788441783
 H          1.6092179659       -2.2292996389        0.4531147933
 H          0.1298766696       -0.0986703182       -1.1372857911
 H          1.0621255446       -1.2823088478       -2.0018210977
 H          2.4659354605        0.6604034901       -1.6759672278
 H          3.1169966488       -0.6562350549       -0.7388584116
 H          3.2318666087        1.4279090537        0.5460226161
 H          2.1660194962        0.3188043547        1.3468801430
 H          1.1984966009        2.6470256092        1.2884239117
 H          0.1649299888        1.5439323741        0.3913275078
 H          1.2468112651        2.6243654294       -0.4727102288
