  21
        -25.35281489
 N         -1.4906652681       -1.8852237341        0.2221327392
 C         -0.1280343035       -1.6964080852       -0.3563773080
 C          0.6322281401       -0.5605267618        0.3174420728
 C          2.0271381056       -0.3425835901       -0.2694187370
 C          2.7865326687        0.8032076669        0.4011719692
 C          4.1728678895        1.0157751414       -0.1888690883
 Cl        -3.1589446392        1.1846540898       -0.0626670641
 H         -2.0400458242       -1.0124380331        0.1417037304
 H         -1.4361299469       -2.1206309632        1.2221059499
 H         -2.0144643505       -2.6337611184       -0.2524317818
 H         -0.2062802518       -1.4998696228       -1.4323549677
 H          0.4446435053       -2.6277056717       -0.2725969823
 H          0.7098088129       -0.7575858782        1.3929777042
 H          0.0504519075        0.3655340620        0.2406163405
 H          1.9477195011       -0.1508466992       -1.3462716364
 H          2.6097962475       -1.2681310739       -0.1883974353
 H          2.8601126754        0.6076811692        1.4789502716
 H          2.1960671900        1.7252678360        0.3209735541
 H          4.7877853777        0.1197448732       -0.0856926281
 H          4.7051166117        1.8366148890        0.2969119315
 H          4.1176116623        1.2461046696       -1.2545053178
