21
 energy: -25.358242753075 gnorm: 0.000571838051 xtb: 6.5.1 (fef0646)
N            1.00506743864008       -0.11361053589692        0.27043876730943
C            2.47678389833704        0.00513000178702        0.23454329503566
C            3.06952058747240       -0.08922141273955        1.63627929325118
C            4.59478640472494       -0.00893073046456        1.59758723850137
C            5.20290112634807       -0.05804339240562        2.99819813453380
C            6.72579081525278       -0.01717801979285        2.95363221868902
Cl          -0.12101045178149        0.11086139452843       -2.55347133803693
H            0.60582306620868       -0.03765876374098       -0.69969182387915
H            0.59140806359084        0.63257144572425        0.83436509055944
H            0.72318227238236       -1.02033462451433        0.64904368670269
H            2.73608388648679        0.95842708635933       -0.22540455152603
H            2.87152232180203       -0.78815559800339       -0.40014296109823
H            2.78030143719462       -1.03391259689607        2.09875666354658
H            2.69072830467189        0.72534581930277        2.25524816726481
H            4.89998305483890        0.91761476334207        1.10753221317863
H            4.98909621554328       -0.83802117198375        1.00699197579385
H            4.88308544412653       -0.97258904157814        3.50191515020380
H            4.83764042211441        0.78876746530930        3.58275931063634
H            7.11530860069952       -0.86982529424484        2.40188993993044
H            7.14009253635584       -0.04196838864649        3.95862703243277
H            7.06998455498835        0.89117159455680        2.46391249697024
