  22
        -30.66476696
 N         -1.1336138173        1.5411533181       -1.1099131226
 C         -0.0517664145        1.7512058096       -0.1020129412
 C         -0.6397746067        2.0381149348        1.2741366834
 C          0.8987303174        0.5774137186       -0.0643591467
 C          2.2720067852        0.7803453982       -0.1205463207
 C          3.1455702436       -0.2889918789       -0.0698822080
 C          2.6575595860       -1.5757139712        0.0404569073
 C          1.2952727935       -1.7906432129        0.1025634080
 C          0.4230299833       -0.7204457739        0.0527121044
 Cl        -3.0654459095       -1.1250345599        0.0484461313
 H         -1.7298668903        2.3777537348       -1.2085421993
 H         -1.7439784071        0.7567847661       -0.8219268250
 H         -0.7415912022        1.3103811090       -2.0380449482
 H          0.5282099444        2.6317691026       -0.4243849162
 H         -1.3065839240        2.9019181271        1.2513587470
 H          0.1434090695        2.2318338725        2.0096841911
 H         -1.2191270906        1.1843331236        1.6280725324
 H          2.6539724785        1.7850998861       -0.2015593329
 H          4.2099013101       -0.1179394594       -0.1151881963
 H          3.3391701570       -2.4111013740        0.0797512759
 H          0.9111188685       -2.7950384133        0.1908965169
 H         -0.6395432182       -0.8911415885        0.1058746729
  22
        -30.66467491
 N         -1.1228216489        1.5482133760       -1.1129955454
 C         -0.0522959013        1.7512020968       -0.0918408377
 C         -0.6557604462        2.0246936115        1.2804432109
 C          0.8984612309        0.5775975109       -0.0560018338
 C          2.2707933683        0.7783922269       -0.1366871293
 C          3.1438765728       -0.2915483074       -0.0904647761
 C          2.6563727590       -1.5765848546        0.0401007855
 C          1.2950069548       -1.7893863724        0.1253583238
 C          0.4231953772       -0.7187188049        0.0786460891
 Cl        -3.0619655792       -1.1218331641        0.0366711276
 H         -1.7203294644        2.3841350322       -1.2098926944
 H         -1.7334638370        0.7593769904       -0.8380575502
 H         -0.7204940213        1.3271176380       -2.0390614186
 H          0.5298876617        2.6355487026       -0.3995256165
 H         -1.2398834296        1.1679997701        1.6190024146
 H         -1.3218322005        2.8891336770        1.2588541478
 H          0.1189550967        2.2102229054        2.0270014818
 H          2.6524594925        1.7817613293       -0.2345097601
 H          4.2074739320       -0.1223478401       -0.1554961017
 H          3.3376528453       -2.4123803982        0.0763041895
 H          0.9111773977       -2.7924959314        0.2285548954
 H         -0.6389102174       -0.8877866559        0.1450501808
  22
        -30.66459274
 N         -1.1368490440        1.5202687074       -1.1374292122
 C         -0.0544535925        1.7473231603       -0.1341514278
 C         -0.6419826558        2.0501048665        1.2390045089
 C          0.8974733038        0.5751529429       -0.0854358098
 C          0.4260699207       -0.7150014681        0.1116086159
 C          1.2984759073       -1.7847186398        0.1677092248
 C          2.6560934549       -1.5774512614        0.0276432893
 C          3.1393725147       -0.2988698333       -0.1671091807
 C          2.2658151770        0.7702727731       -0.2216938837
 Cl        -3.0586582526       -1.1139955738        0.1280551158
 H         -1.7368383796        2.3530007427       -1.2459490053
 H         -1.7423612400        0.7369292098       -0.8366129568
 H         -0.7453550038        1.2787065648       -2.0630180436
 H          0.5228275239        2.6254200653       -0.4677995899
 H          0.1413362956        2.2512500778        1.9723441328
 H         -1.2225953148        1.2013409232        1.6027148845
 H         -1.3081859016        2.9141292712        1.2065944269
 H         -0.6337752099       -0.8797749204        0.2172966879
 H          0.9179308577       -2.7827346960        0.3203249651
 H          3.3378755897       -2.4125306270        0.0701784938
 H          4.2001081066       -0.1341898895       -0.2763040586
 H          2.6443582708        1.7683381416       -0.3703182519
  22
        -30.66063357
 N         -1.1189254332       -0.0990707688        0.8446330652
 C         -0.3426979525        0.2119914612       -0.3920086263
 C         -0.3799482720        1.7043529055       -0.6987999122
 C          1.0730376051       -0.3036476915       -0.2862479508
 C          1.8978234293        0.0940807497        0.7567790132
 C          3.1935769442       -0.3770003318        0.8510102898
 C          3.6821373553       -1.2513918083       -0.0991318382
 C          2.8733735605       -1.6532739529       -1.1434586454
 C          1.5777081709       -1.1822842179       -1.2363220026
 Cl        -4.3936150076        0.9532782752        0.4530235534
 H         -1.0979602617       -1.1088380640        1.0553238847
 H         -2.1087204687        0.1941836376        0.7519263382
 H         -0.7221622002        0.3980945526        1.6577117781
 H         -0.8262356079       -0.3244026426       -1.2252614530
 H         -1.4046941461        2.0635041666       -0.8100333410
 H          0.1629884273        1.9357160874       -1.6172799768
 H          0.0815194314        2.2742042404        0.1085920715
 H          1.5202014766        0.7800064273        1.4970619021
 H          3.8239183770       -0.0606354602        1.6675139107
 H          4.6938085546       -1.6191036631       -0.0262312129
 H          3.2534626143       -2.3352984569       -1.8881535171
 H          0.9479441656       -1.4954927544       -2.0528847891
  22
        -30.66050621
 N         -1.1315029766       -0.1447319728        0.8128523833
 C         -0.3376225611        0.2268864195       -0.3953209115
 C         -0.3736951929        1.7323973946       -0.6305162110
 C          1.0765148845       -0.2932564211       -0.2901967162
 C          1.9015911543        0.0999716820        0.7543240686
 C          3.1944227850       -0.3785170533        0.8510827129
 C          3.6788985150       -1.2578293057       -0.0966155183
 C          2.8688238383       -1.6575790391       -1.1407498818
 C          1.5763930729       -1.1783849239       -1.2367316775
 Cl        -4.3916346730        0.9554710133        0.4407229662
 H         -2.1154687597        0.1591857707        0.7241777333
 H         -0.7405717166        0.3056977467        1.6566141160
 H         -1.1193714970       -1.1663065501        0.9697771425
 H         -0.8068565648       -0.2687381637       -1.2613356587
 H          0.1876527240        2.0093032331       -1.5249658302
 H          0.0678499244        2.2643782014        0.2129664055
 H         -1.3972438790        2.0937472901       -0.7461505551
 H          1.5258841996        0.7872151973        1.4944222559
 H          3.8255766231       -0.0643335308        1.6678004690
 H          4.6881926034       -1.6315874906       -0.0215590814
 H          3.2452744743       -2.3446198633       -1.8826779422
 H          0.9453525906       -1.4906946141       -2.0526460127
  22
        -30.65888024
 N         -1.6246706207        1.1235118889        0.7962116666
 C         -0.3235757566        1.6365966009        0.2702607127
 C          0.0847086671        2.8968430306        1.0271559603
 C          0.7235514091        0.5414387133        0.2858717690
 C          0.4901594862       -0.6264066934       -0.4284334947
 C          1.4159181324       -1.6516667777       -0.4411715991
 C          2.5950358050       -1.5259759037        0.2643493491
 C          2.8423392572       -0.3743896291        0.9836030084
 C          1.9139971884        0.6494324987        0.9954400627
 Cl        -2.7787549285       -1.2579161182       -1.5176092236
 H         -2.3384208007        1.8679682194        0.8311483620
 H         -1.5016509339        0.7577381332        1.7550087505
 H         -1.9953469613        0.3565962843        0.2084696735
 H         -0.4765189489        1.9103316473       -0.7871601369
 H         -0.6851664611        3.6675151920        0.9570740603
 H          1.0136747709        3.3187272576        0.6386921527
 H          0.2274325174        2.6794524788        2.0865435239
 H         -0.4365768376       -0.7361328888       -0.9677103430
 H          1.2151623282       -2.5521821971       -1.0005552170
 H          3.3194807552       -2.3254339023        0.2555733776
 H          3.7626755871       -0.2732416006        1.5377395375
 H          2.1205736902        1.5407255691        1.5633236950
  22
        -30.65870941
 N         -1.6311373944        1.1118641677        0.8005113070
 C         -0.3278884776        1.6330057751        0.2886382896
 C          0.0750987502        2.8859201978        1.0602829806
 C          0.7196554430        0.5385514017        0.2993119374
 C          0.5098597275       -0.6032917110       -0.4627026580
 C          1.4355282105       -1.6285594650       -0.4804032919
 C          2.5895939135       -1.5296539737        0.2694921609
 C          2.8116510915       -0.4052540670        1.0383683881
 C          1.8837984538        0.6189530772        1.0545163477
 Cl        -2.7586481758       -1.2383359385       -1.5618340412
 H         -2.3474347581        1.8538232577        0.8366647653
 H         -1.5141032526        0.7376994434        1.7568171702
 H         -1.9941220937        0.3490011682        0.2027277195
 H         -0.4743694128        1.9175688399       -0.7668755180
 H          0.1998901431        2.6612076089        2.1203244694
 H         -0.6893037799        3.6614216294        0.9832762554
 H          1.0126558058        3.3045093949        0.6891743731
 H         -0.3999113447       -0.6935784422       -1.0335593231
 H          1.2539884412       -2.5083608829       -1.0780033310
 H          3.3138005293       -2.3292758722        0.2571885060
 H          3.7116002434       -0.3259193629        1.6283725156
 H          2.0695560348        1.4884971118        1.6619419474
  22
        -30.65854485
 N         -1.6375188885        1.0969830508        0.8085328577
 C         -0.3339096745        1.6267823949        0.3073274471
 C          0.0641430913        2.8739156245        1.0906595907
 C          0.7153052571        0.5342713705        0.3125699153
 C          0.5326712575       -0.5791143205       -0.4970361237
 C          1.4592243260       -1.6035019332       -0.5195179078
 C          2.5855366782       -1.5329865052        0.2745738589
 C          2.7786891346       -0.4382941429        1.0926385358
 C          1.8503642443        0.5854164676        1.1130344403
 Cl        -2.7383589810       -1.2146119156       -1.6062990230
 H         -2.3567539344        1.8359551721        0.8475905753
 H         -1.5238050116        0.7145085556        1.7619609078
 H         -1.9936643467        0.3381810450        0.2015077057
 H         -0.4765172273        1.9203907192       -0.7462821825
 H         -0.6958307744        3.6531400695        1.0077365685
 H          1.0084905838        3.2896033077        0.7338045097
 H          0.1741449491        2.6437676464        2.1511873667
 H         -0.3580287462       -0.6486905239       -1.0999783046
 H          1.2997899746       -2.4606528517       -1.1551329296
 H          3.3102699438       -2.3320695892        0.2588068361
 H          3.6561683547       -0.3820198876        1.7180752076
 H          2.0125005276        1.4313836053        1.7592873444
  22
        -30.65796036
 N         -1.4615235826        1.6609044709        0.5036780177
 C         -0.3794040728        1.7119495781       -0.5234151443
 C          0.3189591923        3.0662459228       -0.5192596081
 C          0.5936610065        0.5731098465       -0.3279047946
 C          1.2792526271        0.4229953684        0.8693879580
 C          2.1574209032       -0.6281432696        1.0526310941
 C          2.3608923721       -1.5436507763        0.0394905711
 C          1.6853408861       -1.4062620016       -1.1567142013
 C          0.8075717809       -0.3549013211       -1.3389693887
 Cl        -2.5383387629       -1.6328471438        0.4789224406
 H         -1.0799071485        1.8525093878        1.4415870567
 H         -1.8907953047        0.7184961125        0.5292046008
 H         -2.2036671325        2.3565289547        0.3177841173
 H         -0.8551983131        1.5706718723       -1.5080237117
 H          0.7980150456        3.2492738051        0.4433584876
 H         -0.3874938994        3.8797817811       -0.6940765069
 H          1.0934052860        3.1172200415       -1.2872911144
 H          1.1207735509        1.1359090590        1.6617233723
 H          2.6837823882       -0.7336607921        1.9885139966
 H          3.0461617568       -2.3646503961        0.1822059812
 H          1.8423603979       -2.1207812074       -1.9498200212
 H          0.2788869559       -0.2501822468       -2.2722142989
  22
        -30.65788379
 N         -1.7837695407        1.2749346634        0.5610576332
 C         -0.3807656205        1.7463499819        0.3680216448
 C         -0.0031671756        2.7913941831        1.4110785518
 C          0.5740328472        0.5756780951        0.3639042480
 C          1.3235705752        0.2793686481       -0.7677532342
 C          2.1808253163       -0.8041209867       -0.7816661842
 C          2.2993076596       -1.6064104496        0.3356267372
 C          1.5586000752       -1.3240238478        1.4660190784
 C          0.7008469607       -0.2406493426        1.4786443926
 Cl        -2.1565690379       -1.2765566429       -1.7608481009
 H         -1.9024941208        0.8689095872        1.5008262608
 H         -2.0139472661        0.5368097669       -0.1284030151
 H         -2.4670768376        2.0444988161        0.4607894112
 H         -0.3260777400        2.2171448486       -0.6275730739
 H         -0.0649318295        2.3729970107        2.4162735800
 H         -0.6728355910        3.6525587745        1.3733716679
 H          1.0182195151        3.1483984951        1.2652580053
 H          1.2285811067        0.9025116555       -1.6421839949
 H          2.7568475483       -1.0240903550       -1.6670368396
 H          2.9685198250       -2.4526019560        0.3251495612
 H          1.6485898717       -1.9502555307        2.3400394883
 H          0.1202591675       -0.0246829947        2.3601397351
  22
        -30.65783764
 N         -1.7829069891        1.2897750950        0.5477188392
 C         -0.3764837113        1.7524721958        0.3569317824
 C          0.0057173368        2.7948330627        1.4007633163
 C          0.5734419186        0.5778725910        0.3550720180
 C          1.3649850223        0.3109570926       -0.7550856968
 C          2.2224301426       -0.7724400313       -0.7653818559
 C          2.2993413658       -1.6037350453        0.3341738888
 C          1.5176837567       -1.3499039605        1.4435572140
 C          0.6604048720       -0.2661198565        1.4528429898
 Cl        -2.1630160261       -1.2936971495       -1.7354919659
 H         -1.9090588310        0.8940758789        1.4908522888
 H         -2.0135789543        0.5458309540       -0.1352669418
 H         -2.4618727737        2.0616553576        0.4363477961
 H         -0.3179583109        2.2224299713       -0.6388401295
 H          1.0263394708        3.1523393388        1.2511627787
 H         -0.0510476385        2.3729977190        2.4049003400
 H         -0.6644023352        3.6558833933        1.3684919255
 H          1.3035245750        0.9575905577       -1.6153116316
 H          2.8316221825       -0.9692428939       -1.6338347955
 H          2.9686308474       -2.4498993761        0.3264516519
 H          1.5757540589       -1.9983938504        2.3039139453
 H          0.0504337879       -0.0703922228        2.3190251353
  22
        -30.65773153
 N         -1.7886052681        1.3140819828        0.5199967943
 C         -0.3765805782        1.7674624868        0.3478176619
 C          0.0016357090        2.7997689088        1.4029480813
 C          0.5650835386        0.5862451623        0.3486088173
 C          1.3826776765        0.3333585068       -0.7459495965
 C          2.2329892043       -0.7556849134       -0.7538883950
 C          2.2769911097       -1.6065160379        0.3324562954
 C          1.4699418334       -1.3661652942        1.4266414286
 C          0.6199420124       -0.2766141270        1.4336721313
 Cl        -2.1255520622       -1.3192659922       -1.7114009747
 H         -2.4604741987        2.0873774810        0.3934308470
 H         -1.9318710187        0.9239804893        1.4660931484
 H         -2.0122575548        0.5669078163       -0.1604142966
 H         -0.3035731378        2.2432512888       -0.6442414515
 H         -0.0644490701        2.3696594516        2.4030193952
 H         -0.6651049877        3.6634682046        1.3726694893
 H          1.0248257568        3.1545565433        1.2642164175
 H          1.3475373221        0.9958252284       -1.5955761167
 H          2.8622709323       -0.9416277758       -1.6103678330
 H          2.9403077590       -2.4573916039        0.3264213505
 H          1.5024918535       -2.0298655112        2.2767018358
 H         -0.0097313226       -0.0915415475        2.2880523653
  22
        -30.65770571
 N         -1.7836571868        1.2885792694        0.5475988498
 C         -0.3773961660        1.7524757707        0.3586737812
 C          0.0029369825        2.7942143821        1.4038478399
 C          0.5729175693        0.5781910676        0.3565665015
 C          1.3573311622        0.3059062939       -0.7573688184
 C          2.2140040400       -0.7780840465       -0.7683183642
 C          2.2972238874       -1.6047034816        0.3343173858
 C          1.5224696090       -1.3456893943        1.4473613011
 C          0.6658211122       -0.2614179168        1.4572381378
 Cl        -2.1579477125       -1.2919681565       -1.7391005718
 H         -2.0125781109        0.5475844799       -0.1349115940
 H         -2.4637224165        2.0607999650        0.4367045779
 H         -1.9104877767        0.8905597266        1.4917410333
 H         -0.3180274127        2.2235260509       -0.6365354978
 H         -0.0547826824        2.3716868236        2.4076043620
 H         -0.6677113710        3.6548163820        1.3714664608
 H          1.0235320920        3.1525691663        1.2557160280
 H          1.2906018178        0.9486527028       -1.6201258024
 H          2.8175038149       -0.9791288091       -1.6397810545
 H          2.9658766020       -2.4513598801        0.3260742880
 H          1.5853281393       -1.9906350097        2.3100666700
 H          0.0605349899       -0.0621285682        2.3259294225
  22
        -30.65765123
 N         -1.4726569316        1.6697722297        0.4954506503
 C         -0.3845762187        1.7231404161       -0.5254294968
 C          0.3172245630        3.0756394135       -0.5106614437
 C          0.5836846685        0.5802752332       -0.3295662461
 C          1.2629598760        0.4232853942        0.8704581330
 C          2.1335823821       -0.6337786349        1.0553664737
 C          2.3357006908       -1.5484763680        0.0412389062
 C          1.6662856542       -1.4043243267       -1.1576605272
 C          0.7959898705       -0.3470752899       -1.3415397943
 Cl        -2.4916716529       -1.6473254792        0.4796134497
 H         -2.2159864951        2.3597403131        0.3037229383
 H         -1.0965228005        1.8658057822        1.4377260605
 H         -1.8961921735        0.7257838074        0.5206111393
 H         -0.8548549770        1.5877499153       -1.5135531528
 H          1.0968782535        3.1280587821       -1.2730436325
 H          0.7902773337        3.2532004371        0.4558830833
 H         -0.3860359178        3.8916955437       -0.6866882417
 H          1.1044638511        1.1346843540        1.6641461997
 H          2.6547653295       -0.7447718142        1.9935368018
 H          3.0147453094       -2.3743558826        0.1854700288
 H          1.8215114879       -2.1186071005       -1.9512949497
 H          0.2712089114       -0.2376616531       -2.2764712108
  22
        -30.65761753
 N         -1.4659648756        1.6619398755        0.4944980710
 C         -0.3773780738        1.7165922419       -0.5257228976
 C          0.3219750499        3.0703998925       -0.5107847884
 C          0.5934716011        0.5760326008       -0.3293164509
 C          1.2707865784        0.4193635342        0.8718929190
 C          2.1461875931       -0.6338329650        1.0562762358
 C          2.3553521442       -1.5447365780        0.0401979569
 C          1.6882722886       -1.4006444659       -1.1600853399
 C          0.8130038521       -0.3473939449       -1.3433118761
 Cl        -2.5319601466       -1.6388743571        0.4812884647
 H         -1.8925861614        0.7212784156        0.5162235820
 H         -2.2088752173        2.3570641721        0.3047636753
 H         -1.0897891289        1.8530611863        1.4367502229
 H         -0.8468277379        1.5801448204       -1.5140772988
 H         -0.3817015240        3.8848967628       -0.6919813247
 H          1.1051887115        3.1222932978       -1.2695928212
 H          0.7900712792        3.2509733144        0.4576331698
 H          1.1076344789        1.1285127958        1.6666210379
 H          2.6656215607       -0.7447342428        1.9954746054
 H          3.0381864431       -2.3675354461        0.1840050880
 H          1.8496159037       -2.1115498128       -1.9555067916
 H          0.2904209265       -0.2377131743       -2.2794805026
  22
        -30.65753447
 N         -1.4725445559        1.6724978613        0.4998769352
 C         -0.3876020569        1.7221852136       -0.5244778636
 C          0.3154919153        3.0740501368       -0.5156645468
 C          0.5802680986        0.5789426368       -0.3285176278
 C          1.2638279379        0.4251233023        0.8693738969
 C          2.1355416320       -0.6312688731        1.0535945009
 C          2.3343168246       -1.5485431535        0.0410708622
 C          1.6603382917       -1.4077060747       -1.1555213220
 C          0.7890753155       -0.3510877539       -1.3388086272
 Cl        -2.4845738734       -1.6461487426        0.4783214517
 H         -1.8961493710        0.7307314536        0.5272911450
 H         -2.2177048209        2.3649936256        0.3090803873
 H         -1.0935806688        1.8691825483        1.4398951123
 H         -0.8610856574        1.5845861425       -1.5107731531
 H          0.7919781485        3.2537563143        0.4487470203
 H         -0.3876125114        3.8903021227       -0.6911957008
 H          1.0925488793        3.1237486723       -1.2809811025
 H          1.1082799461        1.1389608447        1.6615052095
 H          2.6606668485       -0.7394735644        1.9897810568
 H          3.0146002282       -2.3736093999        0.1845388482
 H          1.8132216684       -2.1239731083       -1.9478539825
 H          0.2613617907       -0.2438492520       -2.2722706844
