  22
        -30.74239326
 N          1.1170001129        1.5678236197        1.1180672321
 C          0.0487232316        1.7552867832        0.0840147388
 C          0.6580333621        2.0153434631       -1.2884616980
 C         -0.8991188111        0.5794375520        0.0541824708
 C         -2.2708501730        0.7779177048        0.1260671756
 C         -3.1413491084       -0.2931420041        0.0833814226
 C         -2.6511024278       -1.5777977001       -0.0348788420
 C         -1.2893817715       -1.7882614959       -0.1116801453
 C         -0.4208818606       -0.7159949425       -0.0690021804
 Cl         3.0597912418       -1.1296542414       -0.0356524642
 H          0.7105213873        1.3566126857        2.0390155336
 H          1.7090279928        2.4048053862        1.2057856113
 H          1.7287790381        0.7786658537        0.8529307782
 H         -0.5381214028        2.6409181095        0.3771317608
 H         -0.1132665755        2.1835979703       -2.0409154469
 H          1.2508371075        1.1602452925       -1.6120598355
 H          1.3152244672        2.8851150494       -1.2759049249
 H         -2.6547472600        1.7805344021        0.2136693296
 H         -4.2049468977       -0.1254501408        0.1412257660
 H         -3.3302220316       -2.4146928247       -0.0682928564
 H         -0.9032154729       -2.7906004018       -0.2054544057
 H          0.6412929857       -0.8828253793       -0.1303564755
