18
 energy: -19.329242992557 gnorm: 0.000445679480 xtb: 6.5.1 (fef0646)
N            1.65562049608555        0.06035702124065        0.70614676113729
C            0.84390239993435        0.09271049061215       -0.56435415545712
C           -0.01569575427446       -1.16152124595944       -0.62110006051114
C           -1.15638937147355       -0.88557660839866        0.36878963640778
C           -1.28949605598540        0.64970318635871        0.43997792508725
C           -0.17786175166001        1.21554988237293       -0.45906076342911
H            2.29858823214947       -0.74029456108512        0.71537688812437
H            0.99220476969921       -0.03500671481123        1.48699901740552
H            2.19216620659485        0.92729522315802        0.82775469068346
H            1.53320069648325        0.19773998974217       -1.40261745408439
H            0.53594944631749       -2.07138069981435       -0.38969450340108
H           -0.41000152149046       -1.26488182405549       -1.63052814322917
H           -0.93651506291832       -1.30938203692732        1.35007798186886
H           -2.07948039810625       -1.34880444539528        0.03127759889351
H           -1.18968188668052        1.00759768292338        1.46540574608842
H           -2.26506956680821        0.97698066440878        0.09024650510496
H            0.24498715092505        2.14254032306054       -0.07516888540727
H           -0.56678802879202        1.42290367256955       -1.45427878528212
