28
 energy: -40.300563858825 gnorm: 0.000465982651 xtb: 6.5.1 (fef0646)
N            0.98581682802508        0.04794858231783        0.22657671608753
C            2.39401935523950        0.26004689252455       -0.14578070850688
C            3.27926864489295       -0.13139413033344        1.03696575392263
C            2.73514506559020       -0.55615087277454       -1.36913786582888
C            2.45703981825816       -1.93782676912237       -1.39585611655216
C            2.77237456377319       -2.68728390212951       -2.49256105540944
C            3.32570912295129        0.03265207702604       -2.45617404342682
C            3.66402262132543       -0.71429090692429       -3.60315435292511
C            3.38196605350084       -2.10457941160406       -3.62350607302486
C            3.71692773587418       -2.85264189869236       -4.77082195102997
C            4.30125634942186       -2.25110691266973       -5.85010474111029
C            4.57798047524126       -0.87500744116847       -5.83091339698273
C            4.26768613787881       -0.12331281691153       -4.73250193172904
Cl           0.36710856547709       -2.41617064633878        1.66536718035812
H            0.68679476978976        0.74405853877046        0.90103852808421
H            0.70604539106248       -1.26470397785992        0.95818401220888
H            0.38353069151954        0.09360573636178       -0.58827213404427
H            2.57216609302922        1.32207089311001       -0.38204761164457
H            3.11785605044011       -1.17345981421726        1.29318053835327
H            3.04341158223580        0.47996466396749        1.90455213029041
H            4.32528186587840        0.01224997589756        0.78071841497202
H            1.98707799516042       -2.39575576069195       -0.54076304736967
H            2.55658570386397       -3.74581002799503       -2.50806004202183
H            3.54616403552090        1.09208674404435       -2.45070064704744
H            3.50192866792531       -3.91170632466314       -4.78013134239364
H            4.55486444056803       -2.82963399327433       -6.72641401247915
H            5.03863352189999       -0.41575945384292       -6.69342348551630
H            4.47969785365876        0.93654095719120       -4.71407871523029
