18
 energy: -21.226216976506 gnorm: 0.000294202831 xtb: 6.5.1 (fef0646)
N            0.89097622799546       -0.06085805685159        0.07344821280942
C            2.38868411497067       -0.03061392863656        0.10276468973339
C            2.93367803123879       -0.04108163184316       -1.31584527729052
C            4.46388705607483       -0.06506577680884       -1.34466213589803
C            4.93424425235925       -0.30188009949588       -2.78853252369204
O            4.43965357641128       -1.51713335048635       -3.29412181104000
H            0.49052138712608       -0.05063940922757        1.01990804813568
H            0.57426648346366       -0.90961147292207       -0.41516202752354
H            0.53898458998891        0.75409690229737       -0.44686041032276
H            2.73957385757649       -0.90340491478575        0.65514647776067
H            2.70753483974805        0.86879969062944        0.63146792683382
H            2.58952529467358        0.84135991669218       -1.85812123423636
H            2.58778758277301       -0.92844243171323       -1.85102037749446
H            4.83183999865941       -0.87381259815007       -0.71042633191433
H            4.87501798331860        0.87452930057838       -0.97893247595461
H            6.02622550258173       -0.25911289267148       -2.83506735859698
H            4.53150290528232        0.48011287652911       -3.43744353110611
H            5.01008631575786       -2.24241212313400       -3.01897986020327
