18
 energy: -23.663101789785 gnorm: 0.000547486903 xtb: 6.5.1 (fef0646)
N            2.82879357724856        1.32714478150685       -0.81752951344579
C            2.49018243081898        0.10643948280928       -0.03250980383138
C            3.06362343835404       -1.12392397716561       -0.73980334976683
C            4.55607725226211       -1.07634379447418       -0.78459886900798
C            5.45530873080868       -1.72674443605997       -0.00403371827243
C            6.79879616431446       -1.38589377386854       -0.29800929111305
C            6.91351954197914       -0.47233618726994       -1.28836127423504
S            5.37882968576906       -0.02394110686765       -1.92401518317009
H            2.66194630916584        2.18835130768829       -0.28772030539258
H            2.28316876694262        1.36026769521898       -1.68626868046385
H            3.84196726954258        1.25536792502018       -1.08790110164311
H            1.40765281165854        0.02600065763443        0.06656086014090
H            2.93260460616068        0.20078119736546        0.96020171336134
H            2.65454438201129       -1.19363314433170       -1.74976045140381
H            2.75283222593464       -2.01392404653042       -0.19246403320198
H            5.18084210852682       -2.43536256084375        0.75606091820632
H            7.64360154297323       -1.81040256818368        0.21181960866011
H            7.79492915552860       -0.03744745164812       -1.71409752542082
