24
 energy: -32.152287036960 gnorm: 0.000206085400 xtb: 6.5.1 (fef0646)
N            0.99227815768554        0.08223082967941        0.11181980268261
C            2.50412343346933        0.06560651744494        0.08676687515103
C            2.96881369942251       -0.02157380925207       -1.33717983107563
C            3.08105337913779       -1.28600908435197       -1.95172010926880
C            3.48328647106294       -1.38556455474922       -3.25304250944275
C            3.24879266883493        1.11645350499167       -2.05263766817988
C            3.66362382040708        1.04414685063970       -3.39631911777819
C            3.78516647835296       -0.23348126179478       -4.00940220192719
C            4.21129216161231       -0.30851453358067       -5.35102452960926
C            4.49993748258205        0.82939208085786       -6.05265732002885
C            4.37504986420113        2.09111166353655       -5.44808593642708
C            3.96591361555377        2.19886725094686       -4.14828038287801
H            0.62442994311501        0.12837846608386        1.07013448637024
H            0.64030559624213       -0.76831263862798       -0.34735101875283
H            0.65475582760588        0.89434583689748       -0.42125436787746
H            2.83907606019344       -0.79696129967928        0.66376576798872
H            2.85967404245113        0.97912964702532        0.56372275328116
H            2.86988659030909       -2.17688672895394       -1.37782521643120
H            3.58189689087039       -2.35355708155062       -3.71989792469022
H            3.17498715756758        2.08996215264406       -1.58754014685013
H            4.30783226247631       -1.27989748483927       -5.81210728364494
H            4.82801728091989        0.76634626216469       -7.07864205729015
H            4.60752390717719        2.97645110949229       -6.01939935713343
H            3.87247320874961        3.16682630497530       -3.67838270618791
