  23
        -32.81029941
 N         -2.0686267586        0.0129415551        0.8979739852
 C         -1.3961936804        0.0133908304       -0.3938561995
 C          0.0946110316        0.0740518035       -0.2725872830
 C          0.7483730770        1.2945649859       -0.2123007075
 C          2.1168814703        1.3527045951       -0.0589630081
 C          2.8766696990        0.1889651973        0.0431335870
 C          4.3288979036        0.2773053000        0.2104374989
 C          5.1804532218       -0.7079279862       -0.0382336619
 C          2.2099466882       -1.0340667162       -0.0026576996
 C          0.8409721247       -1.0879097544       -0.1557903296
 Cl        -5.2479593773       -0.1161762354       -0.0875403465
 H         -1.7297868218       -0.7703457525        1.4457577222
 H         -3.9728597461       -0.0645610653        0.3138315707
 H         -1.7933733993        0.8409918065        1.4155943331
 H         -1.7570666427        0.8601075565       -0.9889175760
 H         -1.6893141104       -0.8823483787       -0.9548003621
 H          0.1727886513        2.2023830507       -0.2832722471
 H          2.6140729247        2.3070964890       -0.0182098042
 H          4.7137456773        1.2251490642        0.5512316214
 H          4.8481154094       -1.6589452101       -0.4037420355
 H          6.2379554984       -0.5884028433        0.0997728985
 H          2.7701994416       -1.9473124148        0.0999016348
 H          0.3367812463       -2.0392338043       -0.1803937891
  23
        -32.81026922
 N         -2.0787968221       -0.0206992212       -0.8854680388
 C         -1.3937458407        0.0292438455        0.3987733336
 C          0.0958362595        0.0848770961        0.2612873935
 C          0.7496278992        1.3021104943        0.1533205184
 C          2.1169562983        1.3538756274       -0.0123771956
 C          2.8753897456        0.1867166618       -0.0794014197
 C          4.3266322085        0.2678194052       -0.2590050456
 C          5.1793952900       -0.7065872761        0.0254639840
 C          2.2084694903       -1.0335099934        0.0137041848
 C          0.8406816224       -1.0809859937        0.1789948954
 Cl        -5.2428398581       -0.1127344957        0.1532005946
 H         -1.8068765540        0.7863792865       -1.4360530173
 H         -3.9741971579       -0.0761217977       -0.2697198837
 H         -1.7474713932       -0.8251081043       -1.4074073755
 H         -1.6810574826       -0.8436683164        0.9960889272
 H         -1.7493092209        0.8987706259        0.9648208299
 H          0.1751018076        2.2122854140        0.1976684286
 H          2.6143914167        2.3058759421       -0.0897016445
 H          4.7097059297        1.2007382160       -0.6405062620
 H          4.8484156949       -1.6412690504        0.4320675395
 H          6.2362059455       -0.5933368842       -0.1230787899
 H          2.7676751315       -1.9501128908       -0.0609411238
 H          0.3362357934       -2.0304932672        0.2406599271
  23
        -32.80904373
 N         -2.0770802462        0.9405664630        0.2875111629
 C         -1.4089961158       -0.2859229422       -0.1294130388
 C          0.0911606397       -0.2345131841       -0.1277825944
 C          0.7925711681        0.9278997933        0.1538482805
 C          2.1714410424        0.9451566587        0.1454503007
 C          2.8992449821       -0.2064669636       -0.1454437653
 C          4.3637024453       -0.2177759191       -0.1626120279
 C          5.1332195151        0.6726600089        0.4477551870
 C          2.1904116533       -1.3701161012       -0.4360077351
 C          0.8123487035       -1.3814859290       -0.4255233438
 Cl        -5.2569340071       -0.0332986804        0.0999219758
 H         -1.7566295797        1.2034469212        1.2129695949
 H         -3.9818508581        0.3631322935        0.1785211006
 H         -1.8175786756        1.7014392333       -0.3312947907
 H         -1.7593323838       -0.5544521339       -1.1327574243
 H         -1.7408725053       -1.1029239105        0.5230262249
 H          0.2532727099        1.8307176105        0.3811551361
 H          2.6937624783        1.8630206658        0.3525171740
 H          4.8294610098       -1.0241894879       -0.7061259067
 H          4.7157281840        1.4750856603        1.0225337580
 H          6.2041322417        0.6163914658        0.4063141988
 H          2.7349773856       -2.2703636080       -0.6664985844
 H          0.2791384374       -2.2898779942       -0.6504155973
  23
        -32.80901719
 N         -2.1796163803       -0.9178995508        0.2450752313
 C         -1.3927478526        0.2624701709       -0.0897093203
 C          0.0958352865        0.0713108163       -0.0699207816
 C          0.9250299057        1.1604041664       -0.2951552606
 C          2.2966426512        1.0231351159       -0.2883994600
 C          2.8895894123       -0.2153296328       -0.0534524391
 C          4.3431205780       -0.3939042853       -0.0426171557
 C          5.2248576756        0.5836991936        0.1138150791
 C          2.0529743261       -1.3077935150        0.1650579024
 C          0.6817990258       -1.1644038141        0.1576043912
 Cl        -5.2391302471        0.3867544098        0.0304419654
 H         -1.9756708997       -1.6628878814       -0.4118847178
 H         -4.0140367306       -0.1429767817        0.1183956446
 H         -1.9074222266       -1.2616801925        1.1598937608
 H         -1.6602855758        1.0680212124        0.6039982515
 H         -1.6971180675        0.6192840222       -1.0812871014
 H          0.4809503344        2.1244868041       -0.4799681628
 H          2.9178334791        1.8804713047       -0.4810086304
 H          4.7010727395       -1.4041483513       -0.1606339295
 H          4.9171749978        1.5996219683        0.2611701132
 H          6.2815063922        0.3960166530        0.1165075877
 H          2.4924531145       -2.2743883733        0.3459652772
 H          0.0584597883       -2.0234103370        0.3320990957
  23
        -32.80873912
 N         -2.8264128324       -1.1731904066       -0.3225277130
 C         -1.9370911006       -0.8773479319       -1.4405920274
 C         -0.5196287231       -0.6741420057       -1.0025316636
 C         -0.0367246761        0.5957028919       -0.7280124982
 C          1.2549715587        0.7791412174       -0.2828090608
 C          2.1076139717       -0.3067948217       -0.0929349401
 C          3.4845589417       -0.1526141919        0.3801827928
 C          4.0765221202        1.0005452863        0.6588219536
 C          1.6107636644       -1.5807721326       -0.3635783248
 C          0.3182862699       -1.7600888969       -0.8073411717
 Cl        -2.4693590192        1.6029505423        1.4862844381
 H         -3.7607719741       -1.3910253561       -0.6542130148
 H         -2.6084684177        0.4859103940        0.7638974333
 H         -2.4954059176       -2.0004970594        0.1627828539
 H         -2.2929230816        0.0249131331       -1.9507673800
 H         -1.9765928255       -1.6807572306       -2.1874254583
 H         -0.6876389187        1.4440333253       -0.8585566138
 H          1.6044020687        1.7749433111       -0.0746443364
 H          4.0462008570       -1.0643964197        0.5058335056
 H          3.5698465503        1.9383946130        0.5526056310
 H          5.0920647040        1.0428013267        1.0034336412
 H          2.2517816969       -2.4340861479       -0.2183671684
 H         -0.0540478594       -2.7514973197       -1.0029948502
  23
        -32.80873710
 N         -2.6818967943        1.4082101366        0.3747917977
 C         -1.7855786344        1.0371569781        1.4644545788
 C         -0.4327200267        0.6235274366        0.9734612819
 C          0.5234566242        1.5773686287        0.6634190345
 C          1.7567938396        1.2061970871        0.1717650278
 C          2.0716129867       -0.1362785508       -0.0296170183
 C          3.3706085256       -0.5604011751       -0.5563756731
 C          4.4704406773        0.1797304142       -0.5441045018
 C          1.0993865961       -1.0884193331        0.2709150068
 C         -0.1317925938       -0.7131676053        0.7633197982
 Cl        -2.7623861738       -1.4506112840       -1.3359594787
 H         -3.5625209089        1.7597305196        0.7372752275
 H         -2.7253332477       -0.3013186959       -0.6528612037
 H         -2.2696321547        2.1661463454       -0.1592163267
 H         -2.2343658027        0.2134977639        2.0311493861
 H         -1.6778280068        1.8673192636        2.1743894671
 H          0.2891049896        2.6191957305        0.8055499783
 H          2.4801809831        1.9632337320       -0.0764656661
 H          3.4165318877       -1.5549685564       -0.9702968618
 H          4.4806797415        1.1638865780       -0.1200746608
 H          5.3988123674       -0.1822155990       -0.9426992713
 H          1.3210360967       -2.1305168659        0.1129074232
 H         -0.8760462161       -1.4601728581        0.9817385721
  23
        -32.80871791
 N         -2.7015157268       -1.1826462460        0.7578327859
 C         -1.7863517076       -0.5417461296        1.6960169203
 C         -0.4289693970       -0.3175611102        1.1047223071
 C         -0.1081868473        0.8884579814        0.5013706033
 C          1.1267545540        1.0780469932       -0.0801827431
 C          2.0828017350        0.0643289196       -0.0784299619
 C          3.3866171297        0.2889152064       -0.7064853335
 C          4.4767723805       -0.4248542460       -0.4622526010
 C          1.7479319872       -1.1499125265        0.5180472162
 C          0.5108977948       -1.3358401833        1.0973804084
 Cl        -2.7768751180        1.0975546626       -1.6711071882
 H         -2.3085335460       -2.0670922915        0.4532804296
 H         -2.7422160455        0.1792142349       -0.6992863034
 H         -3.5839463324       -1.4021087574        1.2092143809
 H         -1.6914188363       -1.1397384953        2.6106615504
 H         -2.2105778877        0.4200710149        2.0082779974
 H         -0.8401399809        1.6785329041        0.4835369219
 H          1.3639650764        2.0201911838       -0.5447011079
 H          3.4450457519        1.1064768058       -1.4070479685
 H          4.4740976511       -1.2296270912        0.2454278522
 H          5.4096797161       -0.2156352039       -0.9497562061
 H          2.4588225389       -1.9579961374        0.5102922199
 H          0.2609113432       -2.2823579389        1.5462107762
  23
        -32.80871407
 N         -2.8091111152        1.2463804845        0.2373509176
 C         -1.9158448318        1.0717819593        1.3775769935
 C         -0.5060336188        0.7910152179        0.9581539074
 C          0.3395597692        1.8279618734        0.5980098885
 C          1.6241817560        1.5719042839        0.1690559169
 C          2.1021804390        0.2661647962        0.0768611690
 C          3.4707441432        0.0198248870       -0.3826382159
 C          3.9137392789       -1.1374925165       -0.8537989050
 C          1.2447744395       -0.7714163838        0.4378214416
 C         -0.0385783143       -0.5108836928        0.8678571949
 Cl        -2.4282822447       -1.6926686226       -1.2840758754
 H         -3.7402725822        1.5057509461        0.5472870733
 H         -2.5747848521       -0.5104455067       -0.6759701850
 H         -2.4764336878        2.0121582731       -0.3393762735
 H         -2.2829182070        0.2444695096        1.9954623671
 H         -1.9349812819        1.9602143009        2.0218753044
 H         -0.0208930603        2.8416476707        0.6526840898
 H          2.2716512677        2.3864891737       -0.1083636974
 H          4.1479873737        0.8576364669       -0.3375330644
 H          3.2709943126       -1.9902558637       -0.9439803834
 H          4.9281642145       -1.2627712741       -1.1808817056
 H          1.5927925634       -1.7886703459        0.3888235021
 H         -0.6939477997       -1.3234318200        1.1323773085
  23
        -32.80870112
 N         -2.8023786239        1.2398595613        0.4003134496
 C         -1.8608143053        0.9689048142        1.4812745266
 C         -0.4730602083        0.7174926685        0.9780024361
 C          0.3638055761        1.7771850990        0.6669339567
 C          1.6268480897        1.5522201850        0.1630492216
 C          2.0932730743        0.2563951561       -0.0494627022
 C          3.4372466956        0.0428630556       -0.5907345983
 C          4.1201506814       -1.0892917767       -0.4936268964
 C          1.2406165526       -0.8037362663        0.2524376712
 C         -0.0215062903       -0.5743346956        0.7567080555
 Cl        -2.5442542992       -1.5875189198       -1.3453220172
 H         -3.7155690811        1.4825928330        0.7712277924
 H         -2.6431957310       -0.4503843748       -0.6481660019
 H         -2.4861215552        2.0451463273       -0.1298924067
 H         -2.2067981400        0.0955074289        2.0455780478
 H         -1.8444404871        1.8018396964        2.1959269348
 H          0.0136386663        2.7843664824        0.8200231651
 H          2.2691833974        2.3841707007       -0.0714315415
 H          3.8902476237        0.8836716485       -1.0911723414
 H          3.7219938349       -1.9430897998        0.0172496876
 H          5.1050335602       -1.1918796287       -0.9074147144
 H          1.5656159624       -1.8136758071        0.0713109745
 H         -0.6742375258       -1.4029368156        0.9736307629
  23
        -32.80869924
 N         -2.7251515201       -1.2946285909       -0.3967794945
 C         -1.8863069817       -0.8411606694       -1.5008239963
 C         -0.4952333955       -0.5057272238       -1.0594982273
 C         -0.1434706182        0.7992464145       -0.7514854152
 C          1.1258413060        1.0997926237       -0.3068774021
 C          2.0845670822        0.1011908981       -0.1479497342
 C          3.4275056940        0.4464668881        0.3232255644
 C          4.2840185331       -0.4108473504        0.8607805017
 C          1.7223730342       -1.2087506733       -0.4565088590
 C          0.4513996096       -1.5051449687       -0.9005238487
 Cl        -2.6002492258        1.3638157490        1.6088770124
 H         -3.6369058203       -1.5864281368       -0.7343589039
 H         -2.6450354041        0.2946808937        0.8064743192
 H         -2.3050652405       -2.1117292820        0.0338710945
 H         -2.3455095910        0.0423538188       -1.9584995306
 H         -1.8449062022       -1.6020537512       -2.2908035640
 H         -0.8778254600        1.5803778535       -0.8558337371
 H          1.3858406984        2.1173178716       -0.0686277626
 H          3.7159919696        1.4810685542        0.2278573920
 H          4.0319208778       -1.4429110083        1.0017369492
 H          5.2570238785       -0.1033391793        1.1929400455
 H          2.4487807582       -1.9967583722       -0.3574855105
 H          0.1815063798       -2.5227652502       -1.1273155374
  23
        -32.80866197
 N         -2.6835815704       -1.1728331685        0.7662376481
 C         -1.8164361093       -0.4660913578        1.7027124755
 C         -0.4414918977       -0.2462875108        1.1516320623
 C         -0.1251245811        0.9248441487        0.4810980702
 C          1.1280746603        1.1085019217       -0.0620143789
 C          2.1055895719        0.1208501161        0.0413054589
 C          3.4305434907        0.3411769126       -0.5424803083
 C          4.2977407902       -0.6180893244       -0.8346396175
 C          1.7788270144       -1.0552826056        0.7137918491
 C          0.5237753514       -1.2352145576        1.2550677947
 Cl        -2.7327116941        0.9812407260       -1.7755371542
 H         -2.2622864838       -2.0628533946        0.5217469259
 H         -2.7086281322        0.1132604989       -0.7581591912
 H         -3.5776449798       -1.3881683531        1.1962633767
 H         -1.7462951125       -1.0135640544        2.6506279287
 H         -2.2691409122        0.5022181459        1.9476925001
 H         -0.8747015865        1.6917996015        0.3802210527
 H          1.3603202500        2.0220205733       -0.5828131192
 H          3.6952820406        1.3648316552       -0.7538861001
 H          4.0690374038       -1.6518029694       -0.6685011018
 H          5.2561824282       -0.4003698378       -1.2656299301
 H          2.5203333085       -1.8279749697        0.8211237138
 H          0.2812402594       -2.1523699246        1.7648170529
  23
        -32.80864863
 N         -2.6763282310        1.4301871459        0.1416587535
 C         -1.8314442522        1.1930550230        1.3071058101
 C         -0.4569873175        0.7334313872        0.9301561869
 C          0.5142530925        1.6510810598        0.5629426796
 C          1.7688223233        1.2327850134        0.1734494122
 C          2.0890532037       -0.1227191642        0.1307244856
 C          3.4131460778       -0.5964566214       -0.2782912237
 C          4.2798495485        0.1068014021       -0.9937027285
 C          1.1059158422       -1.0393269583        0.4985337149
 C         -0.1467939722       -0.6169043379        0.8876052727
 Cl        -2.6832546515       -1.6117800502       -1.2223774355
 H         -3.5722101176        1.8184046151        0.4193709208
 H         -2.6767070504       -0.3895780091       -0.6794187357
 H         -2.2386532716        2.1220084317       -0.4578079417
 H         -2.3057082215        0.4377872960        1.9439579541
 H         -1.7573706537        2.1003389635        1.9203580264
 H          0.2765691121        2.7015987074        0.5834978290
 H          2.5148850380        1.9619933408       -0.0905417457
 H          3.6770698975       -1.5972996008        0.0237886473
 H          4.0508055401        1.0945471637       -1.3406646541
 H          5.2377537920       -0.2903967820       -1.2700820933
 H          1.3334842471       -2.0915866194        0.4668580607
 H         -0.9005837774       -1.3380874104        1.1546478962
  23
        -32.80866419
 N         -2.6735610518        1.4334411294        0.0805922254
 C         -1.8567806788        1.3238572304       -1.1232633941
 C         -0.4744905144        0.8276589909       -0.8308154060
 C          0.5106819955        1.7037376510       -0.4039039934
 C          1.7741966734        1.2476828222       -0.0937767201
 C          2.0899181401       -0.1059489357       -0.1930227469
 C          3.4235918346       -0.6191455461        0.1278092893
 C          4.3154140459        0.0108159155        0.8797132888
 C          1.0926045250       -0.9809702519       -0.6193477396
 C         -0.1689979769       -0.5208472690       -0.9287600341
 Cl        -2.6742913310       -1.7374090673        1.1058186377
 H         -2.2200104645        2.0557198218        0.7412905567
 H         -2.6690367645       -0.4636065690        0.6979438918
 H         -3.5743196723        1.8502544302       -0.1326629784
 H         -1.7959378494        2.2912906611       -1.6366387518
 H         -2.3473554827        0.6405478242       -1.8268307117
 H          0.2769757731        2.7515916245       -0.3149546742
 H          2.5305702942        1.9466822656        0.2182420275
 H          3.6733738770       -1.5868977308       -0.2767830614
 H          4.1020494697        0.9613748246        1.3262688458
 H          5.2795033210       -0.4128318934        1.0866511189
 H          1.3165891908       -2.0316064923       -0.6971951801
 H         -0.9331576289       -1.2114271293       -1.2430459060
  23
        -32.80739636
 N         -2.6578827645        1.1671257796        0.6588941020
 C         -1.8266152604        1.5140003495       -0.4904401205
 C         -0.3967458515        1.0964834179       -0.3231966957
 C          0.6161418494        2.0399682517       -0.2406516559
 C          1.9281928140        1.6517832042       -0.0747167176
 C          2.2722619494        0.3043915423        0.0147453764
 C          3.6735369887       -0.0794093782        0.1972476230
 C          4.1579023360       -1.2994314223        0.0113959328
 C          1.2477243443       -0.6372028564       -0.0592127591
 C         -0.0625020037       -0.2442581050       -0.2244851524
 Cl        -2.9969183402       -2.1003388005        0.1371032412
 H         -2.2209646208        1.5169761144        1.5044085697
 H         -2.8917123584       -0.7857131910        0.3630277977
 H         -3.5645896484        1.6205304207        0.5977267025
 H         -1.8732130364        2.5929933096       -0.6817493421
 H         -2.2385672714        1.0326777515       -1.3855689974
 H          0.3678208051        3.0860975558       -0.3063489374
 H          2.7054006471        2.3948065714       -0.0144535858
 H          4.3473968056        0.7070377831        0.4974404912
 H          3.5349374040       -2.1103589668       -0.3089268620
 H          5.1971821578       -1.5221508491        0.1598650982
 H          1.4802644393       -1.6840946260        0.0306330754
 H         -0.8441164805       -0.9831195474       -0.2623847420
  23
        -32.80734832
 N         -2.6964567140       -1.1513666153       -0.5319710757
 C         -1.8353406468       -1.4586542155        0.6065905333
 C         -0.4047780140       -1.0735221168        0.3779531345
 C         -0.0541483058        0.2542789553        0.1956670847
 C          1.2572636786        0.6169768086       -0.0216774864
 C          2.2660575061       -0.3430117004       -0.0647927089
 C          3.6680480876        0.0109257181       -0.2968541829
 C          4.1805635561        1.2222333037       -0.1304964516
 C          1.9054470123       -1.6780673542        0.1074792036
 C          0.5923506275       -2.0358123313        0.3252296852
 Cl        -2.9672158296        2.1431087630       -0.1640134808
 H         -2.2931071097       -1.5496850429       -1.3727097273
 H         -2.8907038977        0.8172190041       -0.3268277935
 H         -3.6085525916       -1.5839910147       -0.4206195018
 H         -1.8926853002       -2.5267919884        0.8491112680
 H         -2.2120397188       -0.9298382535        1.4903903255
 H         -0.8240038781        1.0065863359        0.2115296414
 H          1.5034908873        1.6529538277       -0.1769820186
 H          4.3163792901       -0.7897125672       -0.6150689407
 H          3.5822935443        2.0437880959        0.2094269898
 H          5.2183111380        1.4260140479       -0.3130186359
 H          2.6709622342       -2.4349714952        0.0724830596
 H          0.3311048948       -3.0722613290        0.4564319513
  23
        -32.80733037
 N         -2.5857932253        1.3062816540        0.6370285097
 C         -1.7118603940        1.5497735329       -0.5071573129
 C         -0.3364875348        0.9830254432       -0.3224081774
 C          0.7713399126        1.8134612437       -0.2422190579
 C          2.0344245483        1.2901205048       -0.0653561452
 C          2.2305821443       -0.0855418393        0.0378964156
 C          3.5601068092       -0.6695540780        0.2284083839
 C          4.7017002785       -0.0600968821       -0.0596862569
 C          1.1112768159       -0.9124741933       -0.0312441424
 C         -0.1488115468       -0.3847235281       -0.2080236449
 Cl        -3.2670981699       -1.9124440405        0.1437554765
 H         -2.1226343889        1.6186825818        1.4832193858
 H         -3.0237314610       -0.6142474949        0.3577655576
 H         -3.4391708780        1.8517605784        0.5610604167
 H         -1.6405976051        2.6254513135       -0.7091759648
 H         -2.1652313923        1.1061808068       -1.4017572150
 H          0.6357913481        2.8795056877       -0.3171407858
 H          2.8794062800        1.9524344662        0.0085936471
 H          3.5895904119       -1.6733752734        0.6210085792
 H          4.7213268682        0.9266694566       -0.4773427819
 H          5.6509071450       -0.5358169315        0.0966919112
 H          1.2416959153       -1.9782096133        0.0542513886
 H         -1.0041316768       -1.0367645293       -0.2463012257
  23
        -32.80731106
 N         -2.6572256700       -1.2375220967       -0.4075836061
 C         -1.8426457337       -1.3621904845        0.7979059266
 C         -0.4065344382       -0.9962412428        0.5726752427
 C         -0.0575240943        0.2960958163        0.2158194135
 C          1.2590627438        0.6395031085       -0.0015588296
 C          2.2741436146       -0.3061801510        0.1260845229
 C          3.6822034057        0.0298453672       -0.0963319706
 C          4.1089298583        1.0763506163       -0.7893760305
 C          1.9168527158       -1.6044825495        0.4848859647
 C          0.5984672355       -1.9430957745        0.7012111520
 Cl        -2.9674312032        2.0722175869       -0.5313442090
 H         -2.2151549471       -1.7490170282       -1.1633052907
 H         -2.8739527465        0.7378821021       -0.4975193212
 H         -3.5697629349       -1.6620384024       -0.2714086826
 H         -1.9026165711       -2.3835106689        1.1932700648
 H         -2.2598592430       -0.7138145170        1.5777625819
 H         -0.8318617404        1.0347137231        0.0985340334
 H          1.5084501531        1.6532790975       -0.2626208646
 H          4.4078059564       -0.6422642318        0.3330693218
 H          3.4254160640        1.7562154025       -1.2574611019
 H          5.1547391021        1.2755373072       -0.9248286894
 H          2.6881093710       -2.3492846257        0.5876826953
 H          0.3390864241       -2.9524510914        0.9725166598
  23
        -32.80387280
 N         -3.1903643612        0.2352547103        1.1428631793
 C         -2.0981148526        0.5398500781        2.0527608877
 C         -0.7543619079        0.4367386959        1.4011472374
 C         -0.2036499562        1.5259120407        0.7446861203
 C          1.0078726190        1.4176498199        0.0967965982
 C          1.7034340100        0.2105521878        0.0762857310
 C          2.9859644526        0.1171653750       -0.6246708387
 C          3.5245154820       -1.0119640646       -1.0634879730
 C          1.1432487609       -0.8799905193        0.7386113995
 C         -0.0682783078       -0.7673548301        1.3862174051
 Cl        -1.2401553665       -0.6491764795       -2.2229243008
 H         -3.1691715063        0.8649961885        0.3492225854
 H         -0.5615284291       -0.3046344115       -1.1463764085
 H         -3.0771203428       -0.6985761685        0.7667523027
 H         -2.1486851834       -0.1343354303        2.9152921699
 H         -2.2396155505        1.5473992522        2.4619857475
 H         -0.7369848311        2.4620423808        0.7420015437
 H          1.4270040823        2.2714575707       -0.4086397138
 H          3.5058380338        1.0457469438       -0.7980261324
 H          3.0296849422       -1.9545413055       -0.9395356619
 H          4.4673824553       -1.0263963705       -1.5758437090
 H          1.6712918431       -1.8180357655        0.7550200615
 H         -0.4948202164       -1.6202066906        1.8871192550
  23
        -32.80300463
 N         -2.5703528385        0.7791544379        2.9808636821
 C         -2.5208266123        0.4647015614        1.5625423710
 C         -1.1274465785        0.2341332035        1.0659790224
 C         -0.3570938304        1.2921596889        0.6099985150
 C          0.9382238030        1.0888918086        0.1846288945
 C          1.5059438468       -0.1833734797        0.2069506122
 C          2.8771262165       -0.4278151888       -0.2459548334
 C          3.5409314005        0.3509787634       -1.0887714575
 C          0.7317491391       -1.2383611473        0.6858887901
 C         -0.5631356727       -1.0308732486        1.1094841842
 Cl        -0.7212047698       -0.5599181263       -2.7729926293
 H         -2.1547421005        0.0265069995        3.5174665540
 H         -0.2499498945       -0.3452344554       -1.5603536392
 H         -2.0152994710        1.6051077690        3.1708330266
 H         -2.9898934907        1.2774238120        0.9963183083
 H         -3.1388458028       -0.4199874895        1.3673022768
 H         -0.7814986703        2.2823505271        0.5971260338
 H          1.5266960154        1.9251518211       -0.1518565644
 H          3.3562683002       -1.3163130116        0.1330478336
 H          3.0927763108        1.2272594811       -1.5131029808
 H          4.5448459595        0.1264093871       -1.3943919520
 H          1.1586560054       -2.2268376881        0.7208528790
 H         -1.1484048910       -1.8540323432        1.4834542866
  23
        -32.80277559
 N         -2.4247963860        0.4547375156       -3.0929693140
 C         -2.4417498651        0.2287898541       -1.6571549603
 C         -1.0708838066        0.2006940239       -1.0560467860
 C         -0.4726844904        1.3676068605       -0.6079444980
 C          0.8021734132        1.3483562407       -0.0847785173
 C          1.5250207949        0.1599659030       -0.0019080458
 C          2.8735192631        0.1651022150        0.5690760103
 C          3.7715648700       -0.7955407256        0.4011019611
 C          0.9200677902       -1.0074871901       -0.4635892914
 C         -0.3553711864       -0.9840314665       -0.9858877650
 Cl        -0.9804556691       -0.4254753510        2.7734903684
 H         -1.9599258751        1.3310137833       -3.2988613721
 H         -0.4587444827       -0.2081108496        1.5822789324
 H         -1.8843529230       -0.2696558384       -3.5515739161
 H         -2.9617838142       -0.7126543201       -1.4463479600
 H         -3.0452600953        1.0080907383       -1.1763379406
 H         -1.0154808925        2.2957218847       -0.6767149849
 H          1.2563782721        2.2620371677        0.2603046986
 H          3.1386337500        1.0279161577        1.1589338493
 H          3.5647777806       -1.6605710465       -0.1966288122
 H          4.7479164745       -0.7388221641        0.8429799646
 H          1.4524387204       -1.9411022494       -0.4027407799
 H         -0.8080657548       -1.8918104125       -1.3480147462
  23
        -32.80257784
 N         -3.0902930283        0.7618088963       -0.6859178265
 C         -2.1432038234        0.5186188732       -1.7667285602
 C         -0.7296598455        0.4312058712       -1.2785858807
 C         -0.1167106525        1.5350158812       -0.7081505851
 C          1.1403416922        1.4331792932       -0.1522555088
 C          1.8232684583        0.2187190144       -0.1435804579
 C          3.1529429747        0.1313959893        0.4641388540
 C          3.7140983036       -0.9911568492        0.8913715554
 C          1.2079929576       -0.8834984252       -0.7335515761
 C         -0.0471362964       -0.7765603957       -1.2929269854
 Cl        -1.5631580288       -0.8931316196        1.9889881766
 H         -2.8301079981        0.1848831651        0.1076093508
 H         -0.6860050114       -0.6629524965        1.0286982102
 H         -3.0184335085        1.7190393267       -0.3602640385
 H         -2.2336723180        1.3023106801       -2.5274837887
 H         -2.4208923853       -0.4145173191       -2.2712977151
 H         -0.6424937579        2.4750021784       -0.6882637425
 H          1.6033364359        2.2967749642        0.2946161172
 H          3.6906956499        1.0593919971        0.5749264633
 H          3.2050558820       -1.9321785781        0.8278517581
 H          4.6918032013       -1.0009387953        1.3337662620
 H          1.7281947127       -1.8256475095       -0.7660552151
 H         -0.5155764877       -1.6405470156       -1.7340817405
  23
        -32.80254175
 N         -3.0392489981        0.6734363881        0.9863030082
 C         -2.0110008554        0.2677115924        1.9360995412
 C         -0.6439483500        0.2425157436        1.3239542361
 C         -0.0590226205        1.4130411949        0.8690308633
 C          1.1493012026        1.3849897165        0.2066834665
 C          1.8135257507        0.1816913786       -0.0223906518
 C          3.0896296931        0.1785427602       -0.7408439000
 C          3.9641197312       -0.8178199062       -0.7287361920
 C          1.2214187052       -0.9913321791        0.4414417718
 C          0.0147531354       -0.9589375490        1.1068260701
 Cl        -1.7869328894       -0.5995221531       -2.0136266614
 H         -2.9729008303        1.6665383497        0.7946565851
 H         -0.8384583459       -0.5175879225       -1.0979874655
 H         -2.8606068630        0.2128542418        0.0996355105
 H         -2.2642324323       -0.7263243101        2.3216033006
 H         -2.0233924551        0.9329347038        2.8079017539
 H         -0.5682746438        2.3492306968        1.0259701045
 H          1.5924269771        2.3018730915       -0.1437871718
 H          3.3203421594        1.0665060809       -1.3073626961
 H          3.7925184883       -1.7100510509       -0.1605570842
 H          4.8871687798       -0.7650161929       -1.2736769006
 H          1.7079513088       -1.9358593533        0.2678124183
 H         -0.4361621249       -1.8754952168        1.4491635083
  23
        -32.80250108
 N         -2.5143033125        0.3571171228       -2.7480303232
 C         -2.4019217074        0.2227136381       -1.3049943542
 C         -0.9820340024        0.2037196185       -0.8307094667
 C         -0.3324731955        1.3815963601       -0.4996516541
 C          0.9827757187        1.3678825636       -0.0891188986
 C          1.6951465704        0.1733951670       -0.0063012664
 C          3.0895298238        0.1850402947        0.4410276587
 C          3.9575862063       -0.7969451828        0.2415368829
 C          1.0368128567       -1.0057872891       -0.3491641859
 C         -0.2788013072       -0.9874519662       -0.7588699287
 Cl        -1.3463199066       -0.3926044524        2.2972442004
 H         -2.0569817436        1.2087619147       -3.0524601306
 H         -1.8582728113       -0.5786130813        3.4987022219
 H         -2.0272155285       -0.4055857215       -3.2034423600
 H         -2.9141382421       -0.6923148006       -0.9863898251
 H         -2.9463891778        1.0432278585       -0.8222693238
 H         -0.8690818576        2.3133557605       -0.5656227020
 H          1.4754991856        2.2897216443        0.1701004968
 H          3.4166516971        1.0716598208        0.9601944299
 H          3.6872816284       -1.6868523333       -0.2908552897
 H          4.9706243051       -0.7342473125        0.5903411926
 H          1.5584844048       -1.9444981428       -0.2784142749
 H         -0.7752975922       -1.9056206598       -1.0240525641
  23
        -32.80245988
 N         -2.6369006733        0.5174142798        2.6892877424
 C         -2.4658199310        0.3312735647        1.2577860271
 C         -1.0277387133        0.2846209355        0.8442800972
 C         -0.3540808104        1.4452193154        0.4999570368
 C          0.9768113156        1.4068381957        0.1451011957
 C          1.6782739960        0.2033135892        0.1268326549
 C          3.0909351957        0.1851836719       -0.2592320345
 C          3.7369361894       -0.8840004211       -0.7031522089
 C          0.9986563337       -0.9563407328        0.4935400718
 C         -0.3320383564       -0.9131612887        0.8485297648
 Cl        -1.1229131886       -0.5862594438       -2.2894239231
 H         -2.1776853657       -0.2326396487        3.1929866641
 H         -1.5604959115       -0.8368257567       -3.5083898991
 H         -2.1835208260        1.3751321376        2.9809719553
 H         -2.9820429403        1.1376847080        0.7245548488
 H         -2.9728035571       -0.5912543215        0.9501371338
 H         -0.8842670564        2.3828985434        0.5112934220
 H          1.4878796435        2.3142291622       -0.1291182600
 H          3.6206412745        1.1212397194       -0.1827230478
 H          3.2427148895       -1.8273901631       -0.8234232283
 H          4.7737595099       -0.8443357189       -0.9774154668
 H          1.5249093993       -1.8951325446        0.5115799553
 H         -0.8449636308       -1.8159832414        1.1343047253
  23
        -32.80238296
 N         -2.6474714083        0.4065565179       -3.0441787640
 C         -2.6416701599        0.2339759348       -1.6007233921
 C         -1.2606608622        0.2056963622       -1.0233310643
 C         -0.6452596141        1.3748518477       -0.6055918211
 C          0.6383564475        1.3535910593       -0.1049669976
 C          1.3527926993        0.1613001365       -0.0153450100
 C          2.7124711949        0.1647699456        0.5279169643
 C          3.6018739192       -0.8019387818        0.3492432453
 C          0.7301563064       -1.0084668686       -0.4445282700
 C         -0.5539573347       -0.9835559762       -0.9443096317
 Cl        -0.2789710951       -0.3981292445        2.6762182250
 H         -2.1735858575        1.2676784888       -3.2912953784
 H         -0.6959532427       -0.6123096319        3.9093009104
 H         -2.1234820104       -0.3416011314       -3.4824521896
 H         -3.1720503762       -0.6905541550       -1.3456035955
 H         -3.2240636973        1.0401035780       -1.1384810915
 H         -1.1828957237        2.3056281068       -0.6767599058
 H          1.1043065696        2.2680435391        0.2212986732
 H          2.9931934018        1.0306717250        1.1058865520
 H          3.3777819688       -1.6705082452       -0.2371335560
 H          4.5874417026       -0.7471404408        0.7705179278
 H          1.2536685642       -1.9458847469       -0.3701287011
 H         -1.0219744341       -1.8942307186       -1.2781829986
