  16
        -23.01113223
 O          0.6339610536       -1.3484783690       -0.8877190301
 C          1.5438219421       -1.2872654895        0.1903905871
 C          1.3582509745       -0.0599775028        1.0740101995
 C          1.5981321546        1.2424287968        0.3256402174
 N          0.6916256858        1.3993405228       -0.8451259169
 Cl        -2.4129025631        0.0110054844        0.1686501508
 H         -0.2725425297       -1.1245372081       -0.5705172095
 H          2.5514991983       -1.3013476711       -0.2406960783
 H          1.4436613517       -2.2143693220        0.7691150386
 H          2.0203595083       -0.1215295067        1.9474095602
 H          0.3390596155       -0.0626408627        1.4765456681
 H          2.6403203161        1.2905123346       -0.0144057114
 H          1.4688214783        2.0964485919        1.0019005801
 H          0.9022297262        0.6783246222       -1.5577211296
 H          0.7718006543        2.3251811687       -1.2936307626
 H         -0.2943377199        1.2551184645       -0.5622893353
