  16
        -23.01113223
 O          0.6339610536       -1.3484783690       -0.8877190301
 C          1.5438219421       -1.2872654895        0.1903905871
 C          1.3582509745       -0.0599775028        1.0740101995
 C          1.5981321546        1.2424287968        0.3256402174
 N          0.6916256858        1.3993405228       -0.8451259169
 Cl        -2.4129025631        0.0110054844        0.1686501508
 H         -0.2725425297       -1.1245372081       -0.5705172095
 H          2.5514991983       -1.3013476711       -0.2406960783
 H          1.4436613517       -2.2143693220        0.7691150386
 H          2.0203595083       -0.1215295067        1.9474095602
 H          0.3390596155       -0.0626408627        1.4765456681
 H          2.6403203161        1.2905123346       -0.0144057114
 H          1.4688214783        2.0964485919        1.0019005801
 H          0.9022297262        0.6783246222       -1.5577211296
 H          0.7718006543        2.3251811687       -1.2936307626
 H         -0.2943377199        1.2551184645       -0.5622893353
  16
        -23.01101146
 O          0.6317495673       -1.3452414260       -0.8878552333
 C          1.5400166107       -1.2865974448        0.1916790919
 C          1.3576098091       -0.0579479384        1.0740676792
 C          1.6014446133        1.2429672423        0.3244441503
 N          0.6942024236        1.4021246624       -0.8454811315
 Cl        -2.4125791708        0.0068870259        0.1688213697
 H         -0.2750784922       -1.1212246506       -0.5715574277
 H          2.5482785531       -1.3045554532       -0.2378778381
 H          1.4355953824       -2.2128896389        0.7709440290
 H          2.0193420557       -0.1205266969        1.9476802621
 H          0.3383283800       -0.0572583410        1.4763757337
 H          2.6434577327        1.2870874963       -0.0166916719
 H          1.4759750916        2.0980041686        1.0001481127
 H          0.9030109059        0.6812624906       -1.5587703136
 H          0.7751354310        2.3282463856       -1.2932882844
 H         -0.2917382146        1.2592443416       -0.5619626921
  16
        -23.01088559
 O          0.6320615492       -1.3465485340       -0.8875391074
 C          1.5413902660       -1.2867944632        0.1910617595
 C          1.3578606793       -0.0587514677        1.0740672768
 C          1.5999917369        1.2428545554        0.3250725136
 N          0.6932975328        1.4011116287       -0.8453581962
 Cl        -2.4124781586        0.0082703053        0.1686591120
 H         -0.2746510211       -1.1231081384       -0.5705085704
 H          2.5492428017       -1.3029856321       -0.2395292637
 H          1.4390151731       -2.2134581074        0.7700983442
 H          2.0198982168       -0.1209946293        1.9474733572
 H          0.3386905607       -0.0594699967        1.4766611696
 H          2.6421343118        1.2889014138       -0.0154020913
 H          1.4726588747        2.0974353736        1.0010000581
 H         -0.2896964787        1.2590205218       -0.5631557515
 H          0.9022703691        0.6804983745       -1.5566467186
 H          0.7747681750        2.3309872335       -1.2961364522
  16
        -23.01073697
 O          0.6309536286       -1.3430795343       -0.8907045444
 C          1.5347985609       -1.2858690685        0.1925773112
 C          1.3508725921       -0.0562643571        1.0733257968
 C          1.6013927226        1.2434649890        0.3238940709
 N          0.6984122568        1.4049593159       -0.8489845081
 Cl        -2.4094123622        0.0032057994        0.1720571012
 H         -0.2768610936       -1.1190089375       -0.5771825124
 H          2.5449068476       -1.3062680217       -0.2325165265
 H          1.4259223302       -2.2114576256        0.7721624165
 H          2.0079213260       -0.1197889795        1.9504350213
 H          0.3296364569       -0.0527207369        1.4707055583
 H          2.6446951707        1.2840443002       -0.0137652414
 H          1.4762797795        2.0993844831        0.9985675334
 H         -0.2858153824        1.2673564156       -0.5688274733
 H          0.9059014368        0.6829048068       -1.5593000879
 H          0.7855457070        2.3340466438       -1.3004877628
  16
        -23.00338828
 O          0.2982582004       -1.5206684417        0.6457697575
 C          1.4795675462       -1.3018032634       -0.1019385451
 C          2.2591834059       -0.0622499117        0.3247011712
 C          1.6071651303        1.2582160531       -0.0653790699
 N          0.3571991011        1.5579210243        0.6941572294
 Cl        -2.4384219121        0.0053494749       -0.6778776609
 H         -0.4629379224       -1.0214407532        0.2670187194
 H          1.2399095560       -1.2677523154       -1.1721958826
 H          2.0921537994       -2.2013293964        0.0397218311
 H          3.2726988406       -0.1076799200       -0.0958074256
 H          2.3912393499       -0.0909710997        1.4118407721
 H          1.3982968515        1.2707432329       -1.1423963103
 H          2.3185713302        2.0774224355        0.1005047176
 H          0.4737929087        1.3415273693        1.6961526706
 H         -0.4423878574        1.0058781425        0.3491528314
 H          0.0854069484        2.5554685537        0.6173267522
  16
        -23.00305177
 O          1.6015208484       -2.1657349063       -0.3398553707
 C          2.5959316050       -1.1599273914       -0.3992675395
 C          2.3575897799       -0.0337333947        0.5999957789
 C          1.0462167944        0.6937813383        0.3456842656
 N         -0.1307293344       -0.1681439457        0.6405548694
 Cl        -3.1098204725        1.3158802207       -0.3406819595
 H          1.8031722866       -2.8948752859       -0.9713845084
 H          2.6161828291       -0.7553655193       -1.4188287311
 H          3.5731801705       -1.6280754519       -0.2243359838
 H          3.1969772479        0.6734106401        0.5769653429
 H          2.3443838609       -0.4528544094        1.6119793269
 H          1.0075550031        1.0257518897       -0.6994817907
 H          0.9850319147        1.6078151319        0.9491426880
 H         -0.1843685790       -0.3929713693        1.6459816800
 H         -0.0282069212       -1.0639477182        0.1385182728
 H         -1.0294313294        0.2674117721        0.3565781818
  16
        -23.00211637
 O          1.3035051024       -1.6061109259       -1.0426581236
 C          2.0058316528       -1.3936787938        0.1677728669
 C          1.3845930155       -0.2980184809        1.0260200452
 C          1.3898638378        1.0536943238        0.3285755299
 N          0.4683371696        1.0767859976       -0.8395181791
 Cl        -2.7699737205        0.5239112643        0.2869431412
 H          1.7064723505       -2.3444267493       -1.5561805627
 H          3.0429877845       -1.1327017370       -0.0766766266
 H          2.0388692926       -2.3416732801        0.7200542614
 H          1.9076554879       -0.2324194507        1.9889555115
 H          0.3515041790       -0.5749758695        1.2628313494
 H          2.4085990934        1.2947701786       -0.0000325760
 H          1.1070723144        1.8508492890        1.0271365263
 H          0.6980331290        0.2923611856       -1.4723425674
 H          0.5194133376        1.9571152993       -1.3754175740
 H         -0.5127477595        0.9368458557       -0.5355704067
  16
        -23.00195170
 O          1.3098094161       -1.6086831052       -1.0437058776
 C          2.0111476623       -1.3938841646        0.1668884344
 C          1.3852332739       -0.3012223417        1.0256033300
 C          1.3863454529        1.0510446500        0.3292144435
 N          0.4657140754        1.0717659312       -0.8396497079
 Cl        -2.7728638979        0.5296772251        0.2878516292
 H          1.7160672064       -2.3448212487       -1.5577583861
 H          3.0472473434       -1.1284759701       -0.0772662316
 H          2.0480497890       -2.3420200533        0.7186794758
 H          1.9072157407       -0.2345783768        1.9890511273
 H          0.3529337380       -0.5820875827        1.2612485726
 H          2.4044970612        1.2958007827        0.0015331521
 H          1.1003207262        1.8467936953        1.0280598067
 H         -0.5124210134        0.9326112852       -0.5370174709
 H          0.6960580790        0.2873597103       -1.4697911226
 H          0.5168792326        1.9551414410       -1.3795861212
