  45
        -68.60154559
 N         -7.8493918274        1.9692101141        0.0966339813
 C         -8.2310050908        0.7236391356       -0.6311004406
 C         -7.7744603625       -0.5509761115        0.0832339036
 C         -6.3001197610       -0.7627460923        0.0574029336
 C         -5.6667945839       -1.9734415391        0.0309292224
 C         -4.2592544345       -1.8908219805        0.0246402952
 C         -3.7729833730       -0.6024185857        0.0483944148
 C         -2.4047904492       -0.2210502291        0.0485220860
 C         -1.9256875237        1.0783385127        0.0678480326
 C         -0.5316718033        1.1920214904        0.0615641069
 C          0.1602420419        2.5086334029        0.0799612660
 C          0.1176403981       -0.0469451585        0.0363419897
 C          1.5103949672       -0.3066839365        0.0211366136
 C          2.0769723813       -1.5750347375        0.0059412405
 C          3.4679661023       -1.5829572414       -0.0095770655
 C          4.0494828049       -0.3229722090       -0.0081150276
 C          5.4528656562       -0.0807440527       -0.0247486914
 C          6.1149661608        1.1384674616       -0.0295066219
 C          5.4475484177        2.4682878498       -0.0180752545
 C          7.5240796584        0.9963288079       -0.0477826089
 C          7.9554660073       -0.2915083993       -0.0571146316
 S          6.6271058322       -1.3741833069       -0.0436178249
 S          2.7900812123        0.8761456384        0.0165682317
 S         -1.0669520397       -1.3239729932        0.0238387722
 S         -5.1189399419        0.5012913100        0.0782145567
 H         -8.2858020205        1.9990294201        1.0254805040
 H         -8.1258912964        2.8151427574       -0.4164493709
 H         -6.8328555041        1.9956762321        0.2313887385
 H         -7.8028913530        0.7452529753       -1.6396398911
 H         -9.3189326010        0.7136978844       -0.7689169337
 H         -8.2612401469       -1.4256737613       -0.3629260153
 H         -8.1078421938       -0.5246556990        1.1251969154
 H         -6.2013675820       -2.9105363155        0.0193146619
 H         -3.6133632111       -2.7543858757        0.0041294978
 H         -2.5817429863        1.9330311861        0.0854781693
 H         -0.5548771055        3.3301667580        0.1082770833
 H          0.7775307096        2.6327575075       -0.8098547646
 H          0.8030888730        2.5945307157        0.9561037163
 H          1.4800266982       -2.4731723151        0.0061602877
 H          4.0538306599       -2.4878245058       -0.0226735758
 H          6.1781887075        3.2768337105       -0.0288086872
 H          4.8332707393        2.5841153730        0.8749387512
 H          4.8061516576        2.5854714853       -0.8911990829
 H          8.1924065990        1.8435449428       -0.0538751712
 H          8.9813517292       -0.6060921920       -0.0711862115
