17
 energy: -24.405088804531 gnorm: 0.000811291665 xtb: 6.5.1 (fef0646)
N            1.02856544514889        0.06413196793964       -0.02096273799348
C            2.50977377728111        0.06583333082185       -0.04121483831859
C            3.01969971982249        0.40845813355195       -1.43739824875575
C            4.54736575222653        0.41696970103591       -1.47562560308813
C            5.05617682662030        0.75476679111124       -2.85732217577253
O            6.37979172981915        0.79080586766823       -3.00464923821150
O            4.33238625997266        0.98498302437935       -3.79913238383172
H            0.67602732759804       -0.16414146730436        0.91573674170667
H            0.66620345609126       -0.62737187674394       -0.68819470671830
H            0.66941868054863        0.98702353754113       -0.29323249027146
H            2.87136387346522       -0.91950558505574        0.25281344423346
H            2.87544783917300        0.80044127706747        0.67619089211707
H            2.66536237081838        1.39110215412810       -1.75124038224879
H            2.66410632996928       -0.31644100114986       -2.17069162454085
H            4.94280827042322       -0.56271758556114       -1.19841362638654
H            4.94406928291809        1.15699859701591       -0.77699581878593
H            6.87875305810373        0.59356313355426       -2.19137720313362
