  29
        -44.31149745
 N         -1.3337546414        1.3568634689       -1.4501403865
 C         -1.9022111543        2.4118629598       -0.5747170534
 C         -1.7806551894        2.0281663086        0.8907676924
 O         -0.4184325045        1.7929773364        1.2562737378
 C          0.0202261996        0.4693632507        1.0991287599
 C         -0.6799506209       -0.6243583119        1.5838472542
 C         -0.2284897020       -1.9232720546        1.3721529929
 C          0.9245880826       -2.1592713267        0.6752287865
 C          1.6878091075       -1.0872632457        0.1691611874
 C          2.8778584984       -1.2905288161       -0.5631283693
 C          3.5874139898       -0.2282896385       -1.0472047408
 C          3.1473103712        1.0787283617       -0.8216779026
 C          2.0000792771        1.3075922447       -0.1140622898
 C          1.2458987987        0.2368207711        0.3950812570
 Cl        -2.9652135752       -1.6558090399       -0.9483898620
 H         -1.8475912771        0.4632105551       -1.3348063960
 H         -0.3575236644        1.1730672575       -1.1783467271
 H         -1.3497173024        1.6132840109       -2.4515052979
 H         -2.9480567895        2.6034244737       -0.8436555799
 H         -1.3648194925        3.3512352632       -0.7471613049
 H         -2.3730296979        1.1344551948        1.1058795857
 H         -2.1567723566        2.8228831427        1.5456122417
 H         -1.5746784763       -0.4595176642        2.1581727252
 H         -0.7973373843       -2.7528331598        1.7616366024
 H          1.2644832030       -3.1679844220        0.5086853571
 H          3.2180529915       -2.2978038860       -0.7370077498
 H          4.4949041077       -0.3964899315       -1.6057285657
 H          3.7185617855        1.9092080160       -1.2054457493
 H          1.6602457301        2.3128557429        0.0736558213
