  11
        -10.83717874
 N         -1.2022664261        0.2412489124        0.0000017974
 C          0.0483773951       -0.5739242635       -0.0000117848
 C          1.3147481022        0.2650976118       -0.0000062050
 H         -2.0436839576       -0.3544199278        0.0013714173
 H         -1.2538490996        0.8461172100       -0.8320665948
 H         -1.2525209994        0.8479398548        0.8308179829
 H          0.0363126792       -1.2399981053       -0.8762355273
 H          0.0362836794       -1.2400839390        0.8761459731
 H          1.3627188625        0.9103784040       -0.8807609248
 H          2.2168416152       -0.3543548698        0.0013331753
 H          1.3615194080        0.9120488869        0.8795839012
