  11
  -10.950338420000000       0.11128978157340984      !gc
 N         -1.2023037610        0.2430048486       -0.0000002061
 C          0.0486282487       -0.5760610210       -0.0000195420
 C          1.3123843353        0.2660035393       -0.0000325154
 H         -1.2374796265        0.8413078149       -0.8278257287
 H         -1.2384446000        0.8402458415        0.8286679265
 H         -2.0327686180       -0.3534804942       -0.0008802556
 H          0.0370119445       -1.2395295448       -0.8759666156
 H          0.0368704340       -1.2390867272        0.8762613488
 H          1.3534710223        0.9133096604        0.8771926503
 H          1.3577038435        0.9073650497       -0.8813830255
 H          2.2129559131       -0.3522385552        0.0045569250
  11
  -10.950336810000000       0.11110033929587985      !gc
 N         -1.2023553634        0.2429922475        0.0000269664
 C          0.0486321186       -0.5760260892        0.0000076300
 C          1.3124384958        0.2659909261       -0.0000053442
 H         -2.0326861137       -0.3535034699        0.0007053874
 H         -1.2384867313        0.8402901296       -0.8286176631
 H         -1.2377608582        0.8412417944        0.8280206799
 H          0.0368834252       -1.2392703249       -0.8761068796
 H          0.0369902655       -1.2392798092        0.8761233987
 H          2.2130120124       -0.3523156702       -0.0013049279
 H          1.3562341167        0.9096783268        0.8796711363
 H          1.3551597693        0.9109612166       -0.8788931206
  11
  -10.950335089999999       0.11089831002167758      !gc
 N         -1.2024025027        0.2429772503        0.0000116782
 C          0.0486262929       -0.5759859009       -0.0000076586
 C          1.3124994905        0.2659827103       -0.0000206338
 H         -2.0326440803       -0.3536475436        0.0001877934
 H         -1.2383129825        0.8406357613       -0.8283968097
 H         -1.2381083883        0.8408784484        0.8282589356
 H          0.0369417012       -1.2392878140       -0.8760835302
 H          0.0369834361       -1.2392422412        0.8761076146
 H          1.3558009610        0.9102984147        0.8793442675
 H          1.3556582328        0.9104104841       -0.8791516084
 H          2.2130246559       -0.3524159123       -0.0000917970
  11
  -10.950335040000001       0.11089244257606164      !mtd12
 N         -1.2024015783        0.2429671555        0.0000105810
 C          0.0486090210       -0.5759656761       -0.0000087554
 C          1.3125064207        0.2659820932       -0.0000217310
 H         -1.2386488888        0.8400826501        0.8286889469
 H         -2.0328120893       -0.3535879521       -0.0009037417
 H         -1.2376923324        0.8413605889       -0.8278994832
 H          0.0370454640       -1.2393148274       -0.8760516047
 H          0.0368647966       -1.2391715123        0.8761421185
 H          1.3538884948        0.9130361063        0.8774083458
 H          1.3578031397        0.9075712965       -0.8811304910
 H          2.2130053453       -0.3524401282        0.0039621688
  11
  -10.950334890000001       0.11087484210135216      !gc
 N         -1.2024234086        0.2429747619        0.0000182366
 C          0.0486309058       -0.5759747079       -0.0000011005
 C          1.3125073068        0.2659756253       -0.0000140758
 H         -1.2380998906        0.8407788407       -0.8281799319
 H         -1.2381041321        0.8407436489        0.8283560924
 H         -2.0328271825       -0.3535892735       -0.0000550966
 H          0.0369185780       -1.2392362478       -0.8761073786
 H          0.0369424755       -1.2392563301        0.8760896480
 H          2.2130344668       -0.3524313225       -0.0001831146
 H          1.3558851325        0.9101755082        0.8792765921
 H          1.3557364986        0.9104303991       -0.8792693896
  11
  -10.950334630000000       0.11084434122903399      !gc
 N         -1.2024281845        0.2429634691        0.0000107834
 C          0.0486298138       -0.5759719102       -0.0000085536
 C          1.3125218347        0.2659671803       -0.0000215292
 H         -2.0328014540       -0.3534751790       -0.0009449628
 H         -1.2375934307        0.8413568739       -0.8278930195
 H         -1.2385698285        0.8401054756        0.8287908178
 H          0.0369962966       -1.2394222290       -0.8759691633
 H          0.0368807832       -1.2391206990        0.8761873170
 H          1.3570351394        0.9085748579       -0.8805763989
 H          2.2129435026       -0.3523656620        0.0026202283
 H          1.3545011939        0.9121860178        0.8779938173
  11
  -10.950334529999999       0.11083261235846975      !mtd11
 N         -1.2024330085        0.2429639387        0.0000207798
 C          0.0486316601       -0.5759660980        0.0000014427
 C          1.3125251748        0.2659666047       -0.0000115329
 H         -1.2374769853        0.8414339039        0.8277589222
 H         -2.0328813205       -0.3535279614        0.0011090265
 H         -1.2386095342        0.8400114957       -0.8288248875
 H          0.0368541831       -1.2391951982       -0.8761305028
 H          0.0370035044       -1.2393357553        0.8760260395
 H          1.3546254765        0.9120357593       -0.8781399441
 H          2.2129400094       -0.3523783208       -0.0023968062
 H          1.3569421030        0.9087266029        0.8804296219
  11
  -10.950334450000000       0.11082323015576705      !md1
 N         -1.2024277695        0.2429640339        0.0000133915
 C          0.0486285802       -0.5759778322       -0.0000059456
 C          1.3125164877        0.2659671286       -0.0000189211
 H         -1.2380217608        0.8406830891       -0.8282184813
 H         -1.2379633972        0.8408115728        0.8283063746
 H         -2.0328661424       -0.3534802379        0.0000183063
 H          0.0369566200       -1.2392812337       -0.8761023248
 H          0.0368971997       -1.2392561879        0.8761079370
 H          1.3564572640        0.9093803483       -0.8800168929
 H          2.2129407137       -0.3523551351        0.0014660939
 H          1.3550643590        0.9114005801        0.8785492193
  11
  -10.950333410000001       0.11070133376976600      !mtd7
 N         -1.2024338054        0.2429699385        0.0000201261
 C          0.0486312604       -0.5759608962        0.0000007890
 C          1.3125254633        0.2659726757       -0.0000121866
 H         -1.2374224395        0.8415110554        0.8277083208
 H         -2.0328742996       -0.3535341394        0.0012490385
 H         -1.2386947467        0.8398641570       -0.8289322656
 H          0.0368468402       -1.2392163114       -0.8761108563
 H          0.0370160238       -1.2393389094        0.8760217975
 H          2.2130245537       -0.3524656278       -0.0023937639
 H          1.3569410069        0.9086020240        0.8803831297
 H          1.3545728967        0.9121305638       -0.8780692671
  11
  -10.946410350000001        1.7427669185821637E-003 !mtd7
 N         -1.2162538846        0.2451063049        0.0000274112
 C          0.0557374551       -0.5764380821        0.0000077942
 C          1.3215834045        0.2641381347       -0.0000052119
 H         -1.7871732866        0.0507041231        0.8268052321
 H         -1.7852392251        0.0543215301       -0.8290595204
 H         -1.0000147808        1.2449985194        0.0019824182
 H          0.0542250597       -1.2459779123       -0.8719963467
 H          0.0543336502       -1.2462295930        0.8718103661
 H          1.3664094479        0.9056642722        0.8816000633
 H          1.3650518422        0.9074872809       -0.8801941720
 H          2.2212478924       -0.3555557910       -0.0013597431
