  11
        -10.95033842
 N         -1.2023037610        0.2430048486       -0.0000002061
 C          0.0486282487       -0.5760610210       -0.0000195420
 C          1.3123843353        0.2660035393       -0.0000325154
 H         -1.2374796265        0.8413078149       -0.8278257287
 H         -1.2384446000        0.8402458415        0.8286679265
 H         -2.0327686180       -0.3534804942       -0.0008802556
 H          0.0370119445       -1.2395295448       -0.8759666156
 H          0.0368704340       -1.2390867272        0.8762613488
 H          1.3534710223        0.9133096604        0.8771926503
 H          1.3577038435        0.9073650497       -0.8813830255
 H          2.2129559131       -0.3522385552        0.0045569250
