  11
        -10.95033842
 N         -1.2023037610        0.2430048486       -0.0000002061
 C          0.0486282487       -0.5760610210       -0.0000195420
 C          1.3123843353        0.2660035393       -0.0000325154
 H         -1.2374796265        0.8413078149       -0.8278257287
 H         -1.2384446000        0.8402458415        0.8286679265
 H         -2.0327686180       -0.3534804942       -0.0008802556
 H          0.0370119445       -1.2395295448       -0.8759666156
 H          0.0368704340       -1.2390867272        0.8762613488
 H          1.3534710223        0.9133096604        0.8771926503
 H          1.3577038435        0.9073650497       -0.8813830255
 H          2.2129559131       -0.3522385552        0.0045569250
  11
        -10.94641035
 N         -1.2162538846        0.2451063049        0.0000274112
 C          0.0557374551       -0.5764380821        0.0000077942
 C          1.3215834045        0.2641381347       -0.0000052119
 H         -1.7871732866        0.0507041231        0.8268052321
 H         -1.7852392251        0.0543215301       -0.8290595204
 H         -1.0000147808        1.2449985194        0.0019824182
 H          0.0542250597       -1.2459779123       -0.8719963467
 H          0.0543336502       -1.2462295930        0.8718103661
 H          1.3664094479        0.9056642722        0.8816000633
 H          1.3650518422        0.9074872809       -0.8801941720
 H          2.2212478924       -0.3555557910       -0.0013597431
