  11
  -10.837178740000001       0.11127195231950510      !mtd2
 N         -1.2022664261        0.2412489124        0.0000017974
 C          0.0483773951       -0.5739242635       -0.0000117848
 C          1.3147481022        0.2650976118       -0.0000062050
 H         -2.0436839576       -0.3544199278        0.0013714173
 H         -1.2538490996        0.8461172100       -0.8320665948
 H         -1.2525209994        0.8479398548        0.8308179829
 H          0.0363126792       -1.2399981053       -0.8762355273
 H          0.0362836794       -1.2400839390        0.8761459731
 H          1.3627188625        0.9103784040       -0.8807609248
 H          2.2168416152       -0.3543548698        0.0013331753
 H          1.3615194080        0.9120488869        0.8795839012
  11
  -10.837178440000001       0.11123663370411982      !mtd10
 N         -1.2022599701        0.2412617500        0.0000111557
 C          0.0483804602       -0.5739268552       -0.0000024266
 C          1.3147547682        0.2651119158        0.0000031534
 H         -1.2525728113        0.8477658039       -0.8309093197
 H         -1.2539472415        0.8459747456        0.8321845425
 H         -2.0436747500       -0.3544492429       -0.0014063362
 H          0.0363441685       -1.2400207767       -0.8762101620
 H          0.0362762020       -1.2399989907        0.8762189928
 H          2.2168922338       -0.3544150797       -0.0005439629
 H          1.3623137023        0.9108036391        0.8803779868
 H          1.3617850009        0.9116494392       -0.8798754321
  11
  -10.837178030000000       0.11118838305875849      !md4
 N         -1.2022553542        0.2412577780        0.0000014886
 C          0.0483854365       -0.5739214593       -0.0000120936
 C          1.3147501998        0.2651057305       -0.0000065137
 H         -1.2538112787        0.8461929768        0.8319960931
 H         -2.0436578758       -0.3544742175       -0.0008439674
 H         -1.2528644490        0.8476250744       -0.8310304947
 H          0.0363055509       -1.2400562338       -0.8761886898
 H          0.0363059344       -1.2399900980        0.8762165275
 H          1.3624881114        0.9107542892       -0.8805043333
 H          2.2168302820       -0.3543699175        0.0007140336
 H          1.3617512209        0.9116922696        0.8798418844
  11
  -10.837175990000000       0.11094861763905835      !md4
 N         -1.2022711710        0.2412522898        0.0000030955
 C          0.0483925352       -0.5739220349       -0.0000104867
 C          1.3147621893        0.2650965852       -0.0000049070
 H         -1.2532752413        0.8470584839       -0.8313613165
 H         -1.2533784572        0.8467880613        0.8316350227
 H         -2.0436784048       -0.3544496125       -0.0001172196
 H          0.0362626568       -1.2400688116       -0.8761648645
 H          0.0363739125       -1.2400381140        0.8761782211
 H          1.3613792187        0.9123039292       -0.8794378310
 H          2.2169229689       -0.3542196737       -0.0014896336
 H          1.3627331768        0.9101919940        0.8808980473
  11
  -10.837175849999999       0.11093218212073865      !md3
 N         -1.2022439928        0.2412616423        0.0000088811
 C          0.0483911197       -0.5739256148       -0.0000047012
 C          1.3147397320        0.2651070655        0.0000008788
 H         -1.2532188669        0.8471917155       -0.8312957951
 H         -1.2535901182        0.8466357278        0.8317251572
 H         -2.0436177441       -0.3545097312       -0.0002955965
 H          0.0363041058       -1.2399880278       -0.8762389408
 H          0.0363385538       -1.2401188453        0.8761289311
 H          1.3626158372        0.9105779827        0.8806254775
 H          1.3614972012        0.9119380863       -0.8795863737
 H          2.2169176570       -0.3543728533       -0.0011407274
  11
  -10.837175470000000       0.11088758370033526      !mtd6
 N         -1.2022697914        0.2412525574        0.0000013825
 C          0.0483863261       -0.5739033125       -0.0000121995
 C          1.3147680792        0.2651012761       -0.0000066199
 H         -1.2531734443        0.8470753085        0.8314061083
 H         -2.0437331513       -0.3544155354        0.0003829105
 H         -1.2536379897        0.8467101228       -0.8316656547
 H          0.0361640177       -1.2400503628       -0.8761803123
 H          0.0364669059       -1.2400024034        0.8761821551
 H          1.3621284752        0.9114571303        0.8800898688
 H          1.3622140809        0.9109781347       -0.8801650715
 H          2.2168955670       -0.3544688722        0.0001550507
  11
  -10.837175250000000       0.11086177175775498      !md2
 N         -1.2022564350        0.2412605851        0.0000053884
 C          0.0483806917       -0.5739361363       -0.0000081940
 C          1.3147550058        0.2651114095       -0.0000026140
 H         -2.0436634513       -0.3544268573        0.0016856227
 H         -1.2540797321        0.8458483906       -0.8322652008
 H         -1.2525783290        0.8480461152        0.8307553037
 H          0.0362891473       -1.2400154328       -0.8762280763
 H          0.0363330614       -1.2401460407        0.8761160511
 H          1.3621314502        0.9111946048        0.8802435748
 H          1.3619673505        0.9113129243       -0.8800604670
 H          2.2169622897       -0.3543713420       -0.0001928925
  11
  -10.837174680000000       0.11079492330805525      !gc
 N         -1.2022413900        0.2412536376        0.0000072433
 C          0.0483863081       -0.5739207841       -0.0000063388
 C          1.3147511542        0.2651043674       -0.0000007589
 H         -1.2545839750        0.8451686461        0.8327006960
 H         -2.0437021725       -0.3543948916       -0.0024276638
 H         -1.2521745165        0.8486843607       -0.8302889611
 H          0.0363998510       -1.2401039791       -0.8761505181
 H          0.0362343314       -1.2400487174        0.8761757555
 H          2.2169245075       -0.3543727131        0.0018919205
 H          1.3611029387        0.9125541906        0.8791475401
 H          1.3629307133        0.9099529842       -0.8810648465
  11
  -10.837174060000001       0.11072225672615126      !md4
 N         -1.2022779315        0.2412387208        0.0000100785
 C          0.0483662715       -0.5739131695       -0.0000035034
 C          1.3148009675        0.2651020227        0.0000020761
 H         -2.0437489438       -0.3543532671       -0.0008084339
 H         -1.2529569606        0.8474210623       -0.8311401626
 H         -1.2538568099        0.8464039943        0.8318570434
 H          0.0364603441       -1.2399360826       -0.8762404659
 H          0.0362259597       -1.2401060703        0.8761034690
 H          2.2169424585       -0.3544213939        0.0017556043
 H          1.3612590170        0.9124002976        0.8792448041
 H          1.3629595817        0.9101758358       -0.8808949111
  11
  -10.832862640000000        1.1556956655228894E-003 !mtd4
 N         -1.2060265487        0.2406891271        0.0000051691
 C          0.0433888766       -0.5764781575       -0.0000084322
 C          1.3236991416        0.2679656384       -0.0000028353
 H         -1.2561194943        0.8456356958        0.8321416754
 H         -2.0482691507       -0.3537793933        0.0006256363
 H         -1.2566071166        0.8448370818       -0.8327116663
 H          0.0228076497       -1.2474112711       -0.8732887250
 H          0.0226887223       -1.2470883279        0.8735259286
 H          1.9408440589        0.0851569046       -0.8854179001
 H          1.9519903388        0.0686304811        0.8738403216
 H          1.0913204862        1.3356821591        0.0113471671
