11
 energy: -15.051039882697 gnorm: 0.000284866167 xtb: 6.5.1 (fef0646)
N            1.07270469772633       -0.01476346515287        0.07159332002917
C            2.56335348328836       -0.03310214254451        0.00648465413549
C            3.04901487908605       -1.33350292476358        0.63969669172185
F            2.43551641712468       -1.43179546270125        1.86212569016576
H            0.68585479933854        0.89477110133250       -0.20945798992032
H            0.79807775416179       -0.21209614262774        1.04971355237670
H            0.66668847696767       -0.74992479102111       -0.52415643803582
H            2.94170305192916        0.81699333961136        0.57851273666111
H            2.90374288343806        0.04415600867320       -1.02578058366692
H            4.12926345136038       -1.32660764460652        0.80138950442033
H            2.76041010557898       -2.21872787619949        0.06435886211264
