  22
  -51.758358340000001       0.15574347835818805      !mtd8
 N         -3.0458522238       -0.6525900514       -0.6251593929
 C         -3.1063471762        0.7821633525       -0.2392142288
 C         -2.2399588174        1.0902703466        0.9768693118
 C         -0.8218913189        0.6893073724        0.7817136952
 C         -0.4194060415       -0.6028850886        1.0916436092
 F         -1.3269826055       -1.5019344502        1.5126606824
 C          0.8980607711       -0.9891530915        0.8931701920
 F          1.2799850043       -2.2426123988        1.1840743808
 C          1.8100872161       -0.0907426329        0.3623561900
 F          3.0823428770       -0.4675335977        0.1600656914
 C          1.4035494732        1.1886810387        0.0182617700
 F          2.2785648667        2.0473416193       -0.5285149262
 C          0.0867099543        1.5759657083        0.2203589672
 F         -0.3209897004        2.7980960279       -0.1649772740
 Cl        -0.0687378855       -1.3766407695       -2.2970953051
 H         -3.7610375829       -0.9012415862       -1.3251184229
 H         -3.1752798810       -1.2594698867        0.1998500662
 H         -2.1228190375       -0.8882695834       -1.0279558988
 H         -4.1480142904        1.0650934455       -0.0411932413
 H         -2.7825972549        1.3970222173       -1.0885172900
 H         -2.6305382807        0.5613239908        1.8538157903
 H         -2.2761961656        2.1592263842        1.2196417159
  22
  -51.758223899999997       0.13509072230340727      !gc
 N         -3.0416553538       -0.6471367690       -0.6304750481
 C         -3.1039085404        0.7861658389       -0.2393914293
 C         -2.2411374729        1.0898683695        0.9803740503
 C         -0.8225918771        0.6900774290        0.7868703014
 C         -0.4197935884       -0.6023308496        1.0955167043
 F         -1.3277086213       -1.5025729043        1.5133900670
 C          0.8972323541       -0.9887023568        0.8945193861
 F          1.2791005751       -2.2426303695        1.1834562508
 C          1.8082098076       -0.0905718043        0.3613948534
 F          3.0800215100       -0.4675067059        0.1566492470
 C          1.4010571828        1.1888311019        0.0178871925
 F          2.2744913408        2.0466775896       -0.5326840857
 C          0.0847855970        1.5763643708        0.2229584692
 F         -0.3241952422        2.7974709906       -0.1643498911
 Cl        -0.0624719268       -1.3804588854       -2.2961034883
 H         -3.7547151201       -0.8936174542       -1.3334449696
 H         -3.1731981306       -1.2567707593        0.1921232565
 H         -2.1173181711       -0.8815756833       -1.0311362262
 H         -4.1461657150        1.0682551475       -0.0432966347
 H         -2.7775074768        1.4042230672       -1.0853671686
 H         -2.6338187195        0.5573375114        1.8541867367
 H         -2.2783398930        2.1578822964        1.2271078759
  22
  -51.758165890000001       0.12704745613906895      !gc
 N         -3.0511098992       -0.6470719182       -0.6259599285
 C         -3.1033983641        0.7889088379       -0.2435888131
 C         -2.2389229328        1.0944497263        0.9744372682
 C         -0.8205085240        0.6943359271        0.7802703806
 C         -0.4183023763       -0.5992101003        1.0848012079
 F         -1.3263125734       -1.5000398356        1.5010367566
 C          0.8993664641       -0.9845224398        0.8859242149
 F          1.2802454566       -2.2400191736        1.1693505457
 C          1.8119031203       -0.0837541758        0.3599789384
 F          3.0845406496       -0.4593844277        0.1578688772
 C          1.4056868702        1.1972137176        0.0212718715
 F          2.2810584201        2.0581836789       -0.5212660308
 C          0.0886560120        1.5834958336        0.2237716674
 F         -0.3184893113        2.8075817091       -0.1559483859
 Cl        -0.0753648278       -1.4135944235       -2.2834391006
 H         -3.1896901566       -1.2494179561        0.1977995938
 H         -2.1275636285       -0.8912209865       -1.0223597179
 H         -3.7657442799       -0.8926712464       -1.3312427773
 H         -4.1438966234        1.0787315073       -0.0494216520
 H         -2.7730619136        1.3997309652       -1.0932518308
 H         -2.6308026998        0.5636272547        1.8496274468
 H         -2.2756309847        2.1629104777        1.2193531250
  22
  -51.758141950000002       0.12386936504128690      !md5
 N         -2.7862771398        0.7846068397       -1.3259165051
 C         -3.2000361684        0.2737878172        0.0078181136
 C         -2.2971199333        0.7811013903        1.1265992360
 C         -0.8669862711        0.4437758104        0.9013243238
 C         -0.3471541940       -0.7546701426        1.3710906206
 F         -1.1450688629       -1.6234966385        2.0166735492
 C          0.9822362163       -1.0759665521        1.1381592911
 F          1.4809826859       -2.2365869925        1.5920140021
 C          1.7894825452       -0.2073701107        0.4206447022
 F          3.0739514984       -0.5211726771        0.1899124853
 C          1.2655371313        0.9750090614       -0.0771744121
 F          2.0340127820        1.7948755502       -0.8113970192
 C         -0.0645607765        1.2945852192        0.1531570475
 F         -0.5998258104        2.3911101155       -0.4129205983
 Cl         0.0138174082       -0.9258038261       -2.5216354856
 H         -2.6228130777        1.8008423950       -1.2928263284
 H         -3.4916115633        0.5933436830       -2.0568858807
 H         -1.8988453442        0.3490525303       -1.6299593533
 H         -3.1878830045       -0.8233629197       -0.0074540210
 H         -4.2407213147        0.5618178222        0.2036885788
 H         -2.6097665022        0.3712029813        2.0947139927
 H         -2.3861224852        1.8703275424        1.2095341948
  22
  -51.758122520000001       0.12134852495112362      !gc
 N         -2.7854346736        0.7856243363       -1.3259042732
 C         -3.1996598166        0.2722180754        0.0067055964
 C         -2.2979045667        0.7781596379        1.1270807606
 C         -0.8674736265        0.4414715728        0.9027484939
 C         -0.3468030639       -0.7556800588        1.3748962934
 F         -1.1433518657       -1.6223002901        2.0251044231
 C          0.9825485823       -1.0769584420        1.1417646783
 F          1.4819399623       -2.2365621669        1.5974658082
 C          1.7892581389       -0.2091716235        0.4226645070
 F          3.0736586433       -0.5230410380        0.1917407798
 C          1.2645628133        0.9719587813       -0.0773169964
 F          2.0321200610        1.7903185531       -0.8141746250
 C         -0.0655098862        1.2914539983        0.1531797342
 F         -0.6006459809        2.3882514313       -0.4124694128
 Cl         0.0143876891       -0.9160877582       -2.5322282051
 H         -3.4886447574        0.5950082805       -2.0556235141
 H         -1.8973865798        0.3515944154       -1.6303020968
 H         -2.6227087624        1.8044487331       -1.2913173700
 H         -3.1868798602       -0.8248988897       -0.0103943482
 H         -4.2406440888        0.5593075355        0.2023848659
 H         -2.6114062783        0.3668078704        2.0943141034
 H         -2.3872504231        1.8672429184        1.2114780467
  22
  -51.758121969999998       0.12127791978838411      !mtd8
 N         -3.0558219779       -0.6494172113       -0.6204656732
 C         -3.1034430793        0.7886982516       -0.2456601151
 C         -2.2374614909        1.0982576948        0.9703237264
 C         -0.8190971708        0.6977130825        0.7763240094
 C         -0.4175163968       -0.5965287132        1.0786893460
 F         -1.3259203661       -1.4979354300        1.4928073506
 C          0.9003412602       -0.9817053157        0.8807857652
 F          1.2801908327       -2.2384318480        1.1600599999
 C          1.8142448262       -0.0795999429        0.3595184249
 F          3.0870208057       -0.4551648644        0.1582910375
 C          1.4089989059        1.2025089745        0.0240329229
 F          2.2863117045        2.0658668083       -0.5115603492
 C          0.0915463819        1.5883569866        0.2246074272
 F         -0.3144120347        2.8135662588       -0.1527598144
 Cl        -0.0841754390       -1.4333079928       -2.2773928064
 H         -3.7696380499       -0.8957813947       -1.3226927829
 H         -3.1964307337       -1.2486825989        0.2082424154
 H         -2.1331462422       -0.8986157040       -1.0157605517
 H         -4.1429881476        1.0825081844       -0.0523743424
 H         -2.7718191000        1.3941982337       -1.0986122931
 H         -2.6285305483        0.5705794211        1.8477579397
 H         -2.2739327835        2.1675732678        1.2115718379
  22
  -51.758030929999997       0.11013938623580034      !gc
 N         -2.7836523237        0.7840651020       -1.3265884600
 C         -3.1996273347        0.2746163146        0.0069794634
 C         -2.2974682757        0.7815940177        1.1265521341
 C         -0.8672103062        0.4444615587        0.9018491253
 C         -0.3474754404       -0.7542181977        1.3711131743
 F         -1.1448043767       -1.6219926495        2.0188168332
 C          0.9816094025       -1.0759767491        1.1371003410
 F          1.4800918565       -2.2371148774        1.5898812532
 C          1.7889626805       -0.2070941547        0.4200386716
 F          3.0734671063       -0.5207964604        0.1894677913
 C          1.2651090134        0.9755360473       -0.0772761005
 F          2.0336611039        1.7957157494       -0.8110687585
 C         -0.0647599052        1.2954008697        0.1538771733
 F         -0.5998392523        2.3925331854       -0.4112234618
 Cl         0.0141614982       -0.9290225488       -2.5216507327
 H         -1.8982399460        0.3486905077       -1.6282806186
 H         -2.6189842384        1.8026437368       -1.2942282810
 H         -3.4882024441        0.5924468594       -2.0582718336
 H         -3.1887515753       -0.8225673977       -0.0075592835
 H         -4.2402068230        0.5639990497        0.2013882282
 H         -2.6106604029        0.3713443530        2.0943474370
 H         -2.3865622020        1.8707939281        1.2098000563
  22
  -51.757990110000001       0.10548314718274066      !md6
 N         -3.0530046558       -0.6497187951       -0.6220975324
 C         -3.1031753400        0.7877845767       -0.2451683544
 C         -2.2383274523        1.0968106439        0.9717375894
 C         -0.8198076014        0.6965239570        0.7784260362
 C         -0.4181184803       -0.5974324366        1.0818938356
 F         -1.3266767368       -1.4987934358        1.4958043397
 C          0.8995358719       -0.9829493647        0.8833172577
 F          1.2798481844       -2.2389361268        1.1652639939
 C          1.8128606314       -0.0816964578        0.3595735498
 F          3.0851138147       -0.4580040860        0.1563874262
 C          1.4074125525        1.2000091167        0.0227704763
 F          2.2839236847        2.0620467713       -0.5162356383
 C          0.0903153136        1.5863982865        0.2246255382
 F         -0.3159081516        2.8113237646       -0.1534080683
 Cl        -0.0793507907       -1.4233694013       -2.2801023352
 H         -2.1320134419       -0.8958951407       -1.0167197629
 H         -3.7680347478       -0.8970452150       -1.3263583835
 H         -3.1925180219       -1.2502872379        0.2058692013
 H         -4.1432924448        1.0796851833       -0.0520886478
 H         -2.7720742858        1.3950406746       -1.0970831442
 H         -2.6299075125        0.5684160474        1.8485183880
 H         -2.2751913258        2.1659505572        1.2136823750
