  22
        -51.75835834
 N         -3.0458522238       -0.6525900514       -0.6251593929
 C         -3.1063471762        0.7821633525       -0.2392142288
 C         -2.2399588174        1.0902703466        0.9768693118
 C         -0.8218913189        0.6893073724        0.7817136952
 C         -0.4194060415       -0.6028850886        1.0916436092
 F         -1.3269826055       -1.5019344502        1.5126606824
 C          0.8980607711       -0.9891530915        0.8931701920
 F          1.2799850043       -2.2426123988        1.1840743808
 C          1.8100872161       -0.0907426329        0.3623561900
 F          3.0823428770       -0.4675335977        0.1600656914
 C          1.4035494732        1.1886810387        0.0182617700
 F          2.2785648667        2.0473416193       -0.5285149262
 C          0.0867099543        1.5759657083        0.2203589672
 F         -0.3209897004        2.7980960279       -0.1649772740
 Cl        -0.0687378855       -1.3766407695       -2.2970953051
 H         -3.7610375829       -0.9012415862       -1.3251184229
 H         -3.1752798810       -1.2594698867        0.1998500662
 H         -2.1228190375       -0.8882695834       -1.0279558988
 H         -4.1480142904        1.0650934455       -0.0411932413
 H         -2.7825972549        1.3970222173       -1.0885172900
 H         -2.6305382807        0.5613239908        1.8538157903
 H         -2.2761961656        2.1592263842        1.2196417159
  22
        -51.75822390
 N         -3.0416553538       -0.6471367690       -0.6304750481
 C         -3.1039085404        0.7861658389       -0.2393914293
 C         -2.2411374729        1.0898683695        0.9803740503
 C         -0.8225918771        0.6900774290        0.7868703014
 C         -0.4197935884       -0.6023308496        1.0955167043
 F         -1.3277086213       -1.5025729043        1.5133900670
 C          0.8972323541       -0.9887023568        0.8945193861
 F          1.2791005751       -2.2426303695        1.1834562508
 C          1.8082098076       -0.0905718043        0.3613948534
 F          3.0800215100       -0.4675067059        0.1566492470
 C          1.4010571828        1.1888311019        0.0178871925
 F          2.2744913408        2.0466775896       -0.5326840857
 C          0.0847855970        1.5763643708        0.2229584692
 F         -0.3241952422        2.7974709906       -0.1643498911
 Cl        -0.0624719268       -1.3804588854       -2.2961034883
 H         -3.7547151201       -0.8936174542       -1.3334449696
 H         -3.1731981306       -1.2567707593        0.1921232565
 H         -2.1173181711       -0.8815756833       -1.0311362262
 H         -4.1461657150        1.0682551475       -0.0432966347
 H         -2.7775074768        1.4042230672       -1.0853671686
 H         -2.6338187195        0.5573375114        1.8541867367
 H         -2.2783398930        2.1578822964        1.2271078759
  22
        -51.75814195
 N         -2.7862771398        0.7846068397       -1.3259165051
 C         -3.2000361684        0.2737878172        0.0078181136
 C         -2.2971199333        0.7811013903        1.1265992360
 C         -0.8669862711        0.4437758104        0.9013243238
 C         -0.3471541940       -0.7546701426        1.3710906206
 F         -1.1450688629       -1.6234966385        2.0166735492
 C          0.9822362163       -1.0759665521        1.1381592911
 F          1.4809826859       -2.2365869925        1.5920140021
 C          1.7894825452       -0.2073701107        0.4206447022
 F          3.0739514984       -0.5211726771        0.1899124853
 C          1.2655371313        0.9750090614       -0.0771744121
 F          2.0340127820        1.7948755502       -0.8113970192
 C         -0.0645607765        1.2945852192        0.1531570475
 F         -0.5998258104        2.3911101155       -0.4129205983
 Cl         0.0138174082       -0.9258038261       -2.5216354856
 H         -2.6228130777        1.8008423950       -1.2928263284
 H         -3.4916115633        0.5933436830       -2.0568858807
 H         -1.8988453442        0.3490525303       -1.6299593533
 H         -3.1878830045       -0.8233629197       -0.0074540210
 H         -4.2407213147        0.5618178222        0.2036885788
 H         -2.6097665022        0.3712029813        2.0947139927
 H         -2.3861224852        1.8703275424        1.2095341948
  22
        -51.75803093
 N         -2.7836523237        0.7840651020       -1.3265884600
 C         -3.1996273347        0.2746163146        0.0069794634
 C         -2.2974682757        0.7815940177        1.1265521341
 C         -0.8672103062        0.4444615587        0.9018491253
 C         -0.3474754404       -0.7542181977        1.3711131743
 F         -1.1448043767       -1.6219926495        2.0188168332
 C          0.9816094025       -1.0759767491        1.1371003410
 F          1.4800918565       -2.2371148774        1.5898812532
 C          1.7889626805       -0.2070941547        0.4200386716
 F          3.0734671063       -0.5207964604        0.1894677913
 C          1.2651090134        0.9755360473       -0.0772761005
 F          2.0336611039        1.7957157494       -0.8110687585
 C         -0.0647599052        1.2954008697        0.1538771733
 F         -0.5998392523        2.3925331854       -0.4112234618
 Cl         0.0141614982       -0.9290225488       -2.5216507327
 H         -1.8982399460        0.3486905077       -1.6282806186
 H         -2.6189842384        1.8026437368       -1.2942282810
 H         -3.4882024441        0.5924468594       -2.0582718336
 H         -3.1887515753       -0.8225673977       -0.0075592835
 H         -4.2402068230        0.5639990497        0.2013882282
 H         -2.6106604029        0.3713443530        2.0943474370
 H         -2.3865622020        1.8707939281        1.2098000563
