15
 energy: -18.987817209360 gnorm: 0.000540155129 xtb: 6.5.1 (fef0646)
N            1.09971396444580       -0.31306877585764        0.22175513423100
C            2.54130800993754       -0.33130271675421        0.46820201701584
C            3.01916930381574        1.05393410660531        0.89292950690644
C            4.53397394830444        1.09869409073697        1.04441956810005
Cl           0.48881187543029        1.50650652578586       -1.99408527685265
H            0.76146412477438       -1.22758132269757       -0.05706348610407
H            0.78365016547695        0.66347489575593       -0.95088902649519
H            0.59631885448852       -0.01654024869104        1.05148365732859
H            3.02875715988337       -0.61533009596018       -0.46724663683771
H            2.81902007353044       -1.06821109547198        1.23572493640729
H            2.54800803985029        1.32277986849388        1.84137171026952
H            2.69977912552378        1.77665043182399        0.14196004063534
H            4.86930770456033        0.37466581912568        1.78436927223825
H            4.85345319841805        2.08740099389661        1.36243462689635
H            5.01680445156019        0.87015752320832        0.09752395626084
