  19
        -27.57264279
 N         -1.1096494997       -2.0033894425        0.5513090725
 C         -0.0127653925       -1.8990296217       -0.4554725271
 C          0.8712666402       -0.7103992279       -0.2294939272
 C          2.2431002789       -0.8622419497       -0.0821762801
 C          3.0559926809        0.2354995674        0.1205689539
 C          2.5070738455        1.5004922555        0.1782232067
 C          1.1444284200        1.6649320428        0.0333393821
 C          0.3335375644        0.5660909860       -0.1694109270
 Cl        -3.1662145655        0.8158273162       -0.0345242851
 H         -1.6722772514       -2.8563956689        0.4252810738
 H         -1.7473324633       -1.1929440152        0.4779733154
 H         -0.7266225576       -2.0099111099        1.5057474515
 H         -0.4357335198       -1.8457097248       -1.4651756514
 H          0.5913025183       -2.8130311114       -0.4366344840
 H          2.6722520380       -1.8490338048       -0.1288389898
 H          4.1202636571        0.1042609326        0.2331409381
 H          3.1410607548        2.3581268977        0.3365791451
 H          0.7124113840        2.6517728800        0.0802968318
 H         -0.7309717309        0.6940311611       -0.2726570006
