  19
        -27.57264279
 N         -1.1096494997       -2.0033894425        0.5513090725
 C         -0.0127653925       -1.8990296217       -0.4554725271
 C          0.8712666402       -0.7103992279       -0.2294939272
 C          2.2431002789       -0.8622419497       -0.0821762801
 C          3.0559926809        0.2354995674        0.1205689539
 C          2.5070738455        1.5004922555        0.1782232067
 C          1.1444284200        1.6649320428        0.0333393821
 C          0.3335375644        0.5660909860       -0.1694109270
 Cl        -3.1662145655        0.8158273162       -0.0345242851
 H         -1.6722772514       -2.8563956689        0.4252810738
 H         -1.7473324633       -1.1929440152        0.4779733154
 H         -0.7266225576       -2.0099111099        1.5057474515
 H         -0.4357335198       -1.8457097248       -1.4651756514
 H          0.5913025183       -2.8130311114       -0.4366344840
 H          2.6722520380       -1.8490338048       -0.1288389898
 H          4.1202636571        0.1042609326        0.2331409381
 H          3.1410607548        2.3581268977        0.3365791451
 H          0.7124113840        2.6517728800        0.0802968318
 H         -0.7309717309        0.6940311611       -0.2726570006
  19
        -27.57254680
 N         -1.1075719173       -1.9906106559       -0.6034997430
 C         -0.0129979118       -1.9097979839        0.4078702909
 C          0.8708032827       -0.7159375213        0.2108821494
 C          2.2389980524       -0.8651348157        0.0311347922
 C          3.0507825719        0.2378343496       -0.1460985993
 C          2.5044047835        1.5052585522       -0.1455603374
 C          1.1451586040        1.6669724743        0.0309433301
 C          0.3352334611        0.5628664790        0.2074137666
 Cl        -3.1633809909        0.8148648491        0.0634914228
 H         -1.7417973210       -1.1825320299       -0.5137447372
 H         -1.6737491052       -2.8471314195       -0.4967606791
 H         -0.7228747621       -1.9777957972       -1.5572614298
 H          0.5912987728       -2.8232589559        0.3701659820
 H         -0.4384697692       -1.8792496170        1.4173733904
 H          2.6660060383       -1.8539890820        0.0307171836
 H          4.1122088852        0.1086728002       -0.2846729436
 H          3.1376731273        2.3669426407       -0.2836683926
 H          0.7148786688        2.6556684815        0.0292769231
 H         -0.7272030021        0.6883944705        0.3326180478
  19
        -27.57223575
 N         -1.2644373271       -1.8188066896        0.8260311842
 C          0.0393066551       -2.0107871396        0.1274785991
 C          0.8761686509       -0.7697234167        0.1473044721
 C          0.6005583939        0.2750839736       -0.7217450559
 C          1.3492523754        1.4348963341       -0.6890289828
 C          2.3808358996        1.5653064525        0.2187215550
 C          2.6596133636        0.5358883495        1.0951498656
 C          1.9096978240       -0.6232238732        1.0612877971
 Cl        -2.9725307631        0.7604774472       -0.8508849034
 H         -1.8414989063       -2.6715436199        0.8168018005
 H         -1.8054596973       -1.0621795671        0.3736315721
 H         -1.1145525617       -1.5432512744        1.8057205977
 H         -0.1334436574       -2.3150493049       -0.9112454965
 H          0.5935417276       -2.8363433484        0.5879259778
 H         -0.2131371605        0.1756096611       -1.4202272340
 H          1.1261423579        2.2395495726       -1.3710806315
 H          2.9659892682        2.4705678699        0.2451159525
 H          3.4624969649        0.6374920374        1.8077034846
 H          2.1217033296       -1.4243463069        1.7493543811
  19
        -27.57215270
 N         -1.0765796231       -2.0842623659        0.3416341082
 C         -0.0247050259       -1.9034229666       -0.7001826215
 C          0.8391589429       -0.7121729330       -0.4254794325
 C          2.0712028685       -0.8554324745        0.1958027615
 C          2.8504515750        0.2497076488        0.4760409082
 C          2.4037453424        1.5127716160        0.1434572990
 C          1.1755040430        1.6687621167       -0.4669516789
 C          0.3977331853        0.5626839473       -0.7467393567
 Cl        -3.0242211660        0.8439531079        0.4039227544
 H         -1.6794179360       -2.8969185782        0.1508674220
 H         -1.6787713829       -1.2448284378        0.3922870164
 H         -0.6513879020       -2.2110586946        1.2697283325
 H         -0.4894787469       -1.7946683063       -1.6868589202
 H          0.5976387410       -2.8029726392       -0.7651975445
 H          2.4153623954       -1.8410078071        0.4610124242
 H          3.8075571297        0.1260631484        0.9567912747
 H          3.0116677748        2.3758678976        0.3627286069
 H          0.8219482298        2.6547299087       -0.7228749588
 H         -0.5661653998        0.6821720400       -1.2122626475
  19
        -27.57213973
 N         -1.2618355332       -1.8244507553        0.8232236302
 C          0.0420258227       -2.0145772271        0.1243017178
 C          0.8772716035       -0.7724529634        0.1445823987
 C          0.5945225806        0.2752561991       -0.7185182954
 C          1.3402385229        1.4369073461       -0.6846472576
 C          2.3763015465        1.5661025399        0.2182041690
 C          2.6624614473        0.5335083988        1.0885808536
 C          1.9153301680       -0.6273803767        1.0536747566
 Cl        -2.9711187178        0.7669335032       -0.8449257845
 H         -1.8018600301       -1.0690749066        0.3737770578
 H         -1.1117556687       -1.5501545049        1.8060090359
 H         -1.8384905705       -2.6774642462        0.8123134640
 H         -0.1306099609       -2.3185128244       -0.9145439919
 H          0.5971749856       -2.8397055715        0.5843009371
 H         -0.2231180582        0.1768075484       -1.4125883976
 H          1.1109377817        2.2439893861       -1.3617272136
 H          2.9590178698        2.4728935822        0.2455652955
 H          3.4686332828        0.6340425786        1.7975342588
 H          2.1327985152       -1.4308893979        1.7372624649
  19
        -27.57205099
 N         -1.2929978098       -1.8089356241        0.8416655994
 C          0.0415926310       -2.0257407952        0.2121839784
 C          0.8664977017       -0.7767193861        0.2018698070
 C          0.6781070149        0.1801574897       -0.7840276895
 C          1.4113256056        1.3502469033       -0.7788961069
 C          2.3392297039        1.5793978621        0.2169548458
 C          2.5295105287        0.6386023605        1.2091279766
 C          1.7950350295       -0.5308378282        1.2028658837
 Cl        -2.9024957864        0.7530823427       -0.9477739850
 H         -1.8696973440       -2.6619919312        0.8389414028
 H         -1.8114979843       -1.0699797005        0.3367066941
 H         -1.1886699554       -1.4957412065        1.8160051152
 H         -0.0831346009       -2.3874917643       -0.8148988802
 H          0.5817865336       -2.8193908821        0.7404343529
 H         -0.0543583557        0.0035228827       -1.5536976044
 H          1.2569756981        2.0858487014       -1.5518794879
 H          2.9123842377        2.4926713664        0.2215653697
 H          3.2508269858        0.8175249597        1.9903611552
 H          1.9373846612       -1.2628741356        1.9800816172
  19
        -27.57194252
 N         -1.3017326370       -1.8093456291        0.8442121197
 C          0.0413788672       -2.0314012113        0.2348610365
 C          0.8620819722       -0.7797824947        0.2162595319
 C          0.7003673752        0.1503076066       -0.7996456605
 C          1.4274446556        1.3241752281       -0.8020534226
 C          2.3223621432        1.5841307949        0.2162467036
 C          2.4862101656        0.6699464817        1.2375942370
 C          1.7580722150       -0.5034280108        1.2386972431
 Cl        -2.8750890978        0.7538392789       -0.9719913234
 H         -1.2109849970       -1.4882388553        1.8173388524
 H         -1.8804355679       -2.6642300129        0.8401567764
 H         -1.8112131822       -1.0758917802        0.3275995420
 H         -0.0689875534       -2.4085866110       -0.7882960252
 H          0.5771272775       -2.8154694729        0.7816322766
 H         -0.0059611350       -0.0505041641       -1.5876535990
 H          1.2938365871        2.0388543211       -1.5981910030
 H          2.8898641290        2.5009047809        0.2155601388
 H          3.1817121605        0.8729159568        2.0362076490
 H          1.8796960082       -1.2147811486        2.0382973487
  19
        -27.57189267
 N         -1.0821025405       -2.1052351282       -0.3471388827
 C         -0.0294372696       -1.9314140367        0.6949959751
 C          0.8221674824       -0.7282845980        0.4348183230
 C          2.0034662036       -0.8377704937       -0.2838697577
 C          2.7679300088        0.2799250033       -0.5549697832
 C          2.3561593789        1.5220684268       -0.1156245582
 C          1.1775860523        1.6449770080        0.5924618753
 C          0.4145487476        0.5264040699        0.8630372713
 Cl        -2.9481619978        0.8714866294       -0.4399377046
 H         -0.6575980279       -2.2301097881       -1.2758469963
 H         -1.6791829302       -1.2620475699       -0.3954404325
 H         -1.6883605282       -2.9161277626       -0.1595450137
 H          0.6018209974       -2.8258876418        0.7450347138
 H         -0.4926837989       -1.8418811724        1.6841356437
 H          2.3191497698       -1.8066942720       -0.6326768466
 H          3.6857422590        0.1823714579       -1.1122597772
 H          2.9523791436        2.3950922216       -0.3276350025
 H          0.8510242941        2.6148269024        0.9321097761
 H         -0.5106173138        0.6207898836        1.4065451472
  19
        -27.57184437
 N         -1.1491445981       -0.3111147875        0.6865605509
 C         -0.3509010501       -0.2056208156       -0.5687629561
 C          1.0276066791        0.3202808266       -0.3173256655
 C          2.0670433699       -0.5443836574       -0.0079541417
 C          3.3318167693       -0.0577735280        0.2577908720
 C          3.5706412686        1.3013003567        0.2225605875
 C          2.5422514957        2.1725284857       -0.0757687994
 C          1.2779498685        1.6844635378       -0.3409834495
 Cl        -4.3522632901       -1.5501851541       -0.0169005751
 H         -2.1000681700       -0.6738188152        0.5091578266
 H         -1.2405560318        0.6108626330        1.1404075297
 H         -0.6905672477       -0.9407251100        1.3590739695
 H         -0.8653402230        0.4440675792       -1.2860884861
 H         -0.2856720253       -1.1857604517       -1.0546040260
 H          1.8770623044       -1.6040772569        0.0249411088
 H          4.1325630253       -0.7398412775        0.4945402353
 H          4.5579649119        1.6818231698        0.4298955901
 H          2.7256483421        3.2347941190       -0.1000879417
 H          0.4726368700        2.3629567344       -0.5675523727
  19
        -27.57179660
 N         -1.4044406208       -1.6584295447       -1.0106758982
 C         -0.0056445374       -1.9664120424       -0.5948436597
 C          0.8184864713       -0.7263243682       -0.4418227784
 C          0.7852730729       -0.0029087197        0.7409648282
 C          1.5132304727        1.1628534504        0.8740566475
 C          2.2797759560        1.6220906021       -0.1780039525
 C          2.3142759371        0.9155045500       -1.3634554021
 C          1.5852546735       -0.2498963555       -1.4951325918
 Cl        -2.7128115919        0.5556630031        1.3923055641
 H         -1.4160360494       -1.1735342305       -1.9179113289
 H         -1.8504404032       -1.0286172609       -0.3220884146
 H         -1.9840710115       -2.5056481395       -1.0918042680
 H          0.4654955520       -2.6344199873       -1.3247977183
 H         -0.0093300300       -2.5193813662        0.3513232006
 H          0.1782985560       -0.3580297830        1.5568405376
 H          1.4804632398        1.7156116013        1.7991705345
 H          2.8479183557        2.5326960311       -0.0752889137
 H          2.9087131017        1.2749419496       -2.1881504675
 H          1.6044734448       -0.7981963756       -2.4220699721
  19
        -27.57175704
 N         -1.0824093675       -2.1237605346        0.2827412916
 C         -0.0375702965       -1.9168368881       -0.7611658523
 C          0.8115157042       -0.7185118614       -0.4723836857
 C          1.9788190507       -0.8390867580        0.2669756917
 C          2.7406951989        0.2735182942        0.5649163177
 C          2.3400083281        1.5215772901        0.1320962430
 C          1.1750939167        1.6554782320       -0.5963477991
 C          0.4146916586        0.5419874771       -0.8938388341
 Cl        -2.9154175649        0.8647764351        0.5190036374
 H         -1.6730782485       -1.2821143572        0.3664221936
 H         -0.6498508195       -2.2844446195        1.2052304312
 H         -1.6941933490       -2.9245382895        0.0710385650
 H         -0.5079558445       -1.8010336744       -1.7443624602
 H          0.5963906155       -2.8070672418       -0.8407712677
 H          2.2854342746       -1.8126963392        0.6107842108
 H          3.6478653120        0.1673447092        1.1378493528
 H          2.9343204686        2.3905932122        0.3648117839
 H          0.8573058208        2.6298489087       -0.9313947179
 H         -0.4994987735        0.6447832662       -1.4541890576
  19
        -27.57160815
 N         -1.0866103610       -2.1302267953       -0.3240540296
 C         -0.0373220612       -1.9428364411        0.7191225391
 C          0.8051205787       -0.7346217010        0.4529063678
 C          1.9585741391       -0.8302694300       -0.3112463972
 C          2.7123404263        0.2927044610       -0.5905098958
 C          2.3173822333        1.5263359905       -0.1134626212
 C          1.1664154245        1.6355840037        0.6406740170
 C          0.4139907659        0.5117829736        0.9192477222
 Cl        -2.8816064120        0.8899925536       -0.4827029078
 H         -1.6771307695       -1.2868773191       -0.3882617058
 H         -1.6988025575       -2.9372930125       -0.1249390864
 H         -0.6594265347       -2.2722286445       -1.2491426693
 H          0.6008499408       -2.8319891499        0.7755695831
 H         -0.5032696301       -1.8511936315        1.7067777570
 H          2.2606888605       -1.7925555700       -0.6891570753
 H          3.6083908190        0.2059298094       -1.1837815539
 H          2.9051325725        2.4035203743       -0.3319050015
 H          0.8529678530        2.5988493201        1.0100609435
 H         -0.4897796855        0.5958031921        1.4992146980
  19
        -27.57040198
 N         -1.4253237887        0.3099482822        0.0907309851
 C         -0.2296008184       -0.5688773755       -0.0737022427
 C          1.0877773724        0.1467318931       -0.0120893451
 C          2.2633331921       -0.5800253557       -0.1423798816
 C          3.4933145414        0.0455129934       -0.0917015418
 C          3.5662690569        1.4113684648        0.0906420842
 C          2.4067474699        2.1481386296        0.2217331151
 C          1.1779921432        1.5192032292        0.1704782486
 Cl        -4.3323142807       -1.6376875913       -0.1009821019
 H         -2.3031501142       -0.2327284729        0.0417257853
 H         -1.4633357111        1.0283865726       -0.6492830151
 H         -1.4091438699        0.7912554163        1.0006144514
 H         -0.2974735001       -1.0997619306       -1.0303587724
 H         -0.2430738210       -1.3484221633        0.6966587654
 H          2.2057921545       -1.6462919918       -0.2848452860
 H          4.3968823364       -0.5336560745       -0.1947599622
 H          4.5259417814        1.9012625555        0.1307544266
 H          2.4601584005        3.2155943541        0.3644767839
 H          0.2792043586        2.1009796991        0.2739787691
  19
        -27.57033094
 N         -1.0725499144       -2.1726486234       -0.0128154452
 C         -0.1368262932       -1.6943214358       -1.0735672886
 C          0.7530059704       -0.5604365817       -0.6554927616
 C          0.7146464712       -0.0212184160        0.6222752132
 C          1.5441851178        1.0251226780        0.9756156633
 C          2.4269940128        1.5487447868        0.0533211694
 C          2.4774472033        1.0234894016       -1.2218124042
 C          1.6465634168       -0.0224311450       -1.5717079503
 Cl        -2.9206384190        0.5999834655        1.0764053557
 H         -1.6875784577       -2.9257617612       -0.3520450407
 H         -1.6753872794       -1.3984121581        0.3147673930
 H         -0.5555655053       -2.5330263549        0.8008644008
 H         -0.7130890015       -1.3818992184       -1.9521539960
 H          0.4882855071       -2.5282947575       -1.4124581911
 H          0.0273709658       -0.4209642978        1.3466750862
 H          1.5012882908        1.4335936132        1.9725044350
 H          3.0748324456        2.3657866185        0.3278413589
 H          3.1654734158        1.4302954524       -1.9455555656
 H          1.6848188605       -0.4320862870       -2.5673429686
  19
        -27.57005170
 N         -1.0780068314       -2.1923791981       -0.0268470455
 C         -0.1405764357       -1.7099931951       -1.0843735018
 C          0.7356305085       -0.5661451287       -0.6648141571
 C          0.7640623911       -0.0960443449        0.6402055088
 C          1.5819301712        0.9584793576        0.9963647855
 C          2.3870678685        1.5586436243        0.0499576503
 C          2.3722087940        1.1011494631       -1.2519374115
 C          1.5531139660        0.0469144386       -1.6046282952
 Cl        -2.8551337932        0.6119627867        1.1006695449
 H         -1.7054197686       -2.9311482145       -0.3748963517
 H         -1.6668960167       -1.4136894565        0.3151689604
 H         -0.5635871339       -2.5733940117        0.7790985311
 H         -0.7160205322       -1.4045044650       -1.9660130377
 H          0.4934367400       -2.5389503732       -1.4187722813
 H          0.1384170873       -0.5567397562        1.3840436977
 H          1.5908856168        1.3133310600        2.0144496508
 H          3.0257851162        2.3820959973        0.3266583643
 H          3.0004121770        1.5670338677       -1.9942058011
 H          1.5417323064       -0.3111371286       -2.6206287966
  19
        -27.56988028
 N         -1.0796201057       -2.2031125360       -0.0315151693
 C         -0.1446837230       -1.7163572278       -1.0893466956
 C          0.7252994731       -0.5680703613       -0.6691047742
 C          0.7983978097       -0.1399927792        0.6485486409
 C          1.6113662014        0.9177533288        1.0063549106
 C          2.3672331879        1.5628491516        0.0489379673
 C          2.3083577697        1.1468137775       -1.2655579264
 C          1.4943431626        0.0891920391       -1.6198788945
 Cl        -2.8204656399        0.6176426167        1.1105026826
 H         -1.6594507015       -1.4251212739        0.3192497629
 H         -0.5631261035       -2.5961557121        0.7707260775
 H         -1.7136562484       -2.9345119520       -0.3832392090
 H         -0.7222815575       -1.4130742807       -1.9703723453
 H          0.4931472049       -2.5419039135       -1.4248237229
 H          0.2114297762       -0.6362264702        1.4010109931
 H          1.6550780864        1.2398547456        2.0343783658
 H          3.0022512334        2.3886870292        0.3270420460
 H          2.8984815503        1.6475296057       -2.0163484878
 H          1.4495735665       -0.2370810972       -2.6456047369
  19
        -27.56983601
 N         -1.0797475906       -2.2120575442       -0.0309076558
 C         -0.1475113662       -1.7223078295       -1.0897531161
 C          0.7196828933       -0.5719121599       -0.6694118109
 C          0.7932736196       -0.1454026744        0.6487136911
 C          1.6021788603        0.9154129733        1.0066744602
 C          2.3536746919        1.5650699095        0.0489480648
 C          2.2947303668        1.1502933552       -1.2659621403
 C          1.4846526161        0.0897014448       -1.6204494322
 Cl        -2.7984652014        0.6260002716        1.1106862996
 H         -1.7141643733       -2.9430157882       -0.3826496478
 H         -1.6602627877       -1.4325722905        0.3232627868
 H         -0.5625410204       -2.6053450115        0.7673783666
 H         -0.7271790516       -1.4198378818       -1.9697215043
 H          0.4920013814       -2.5458071683       -1.4269735866
 H          0.2095388243       -0.6449851422        1.4014664289
 H          1.6459793911        1.2364381439        2.0350192809
 H          2.9853579398        2.3934287742        0.3271894352
 H          2.8816941755        1.6542635758       -2.0170371931
 H          1.4395543701       -0.2351913394       -2.6465940290
  19
        -27.56533658
 N         -0.6692936169       -2.4299971156       -0.7556143420
 C         -0.2137645412       -1.8122075774        0.5236984074
 C          0.7447627572       -0.6852050882        0.2956925877
 C          0.2774658056        0.5997286356        0.0658236521
 C          1.1567649425        1.6359678417       -0.1770998806
 C          2.5160080609        1.3973572105       -0.1995415528
 C          2.9934018143        0.1206114875        0.0185017003
 C          2.1123233873       -0.9145924694        0.2618624017
 Cl        -3.1707233347        1.0748679546        0.0661214006
 H         -1.3275970278       -3.2052115478       -0.5986540070
 H          0.1335227965       -2.7949194515       -1.2895758992
 H         -1.1373697813       -1.7299634635       -1.3459377653
 H          0.2569830417       -2.5702647290        1.1600579776
 H         -1.0771534668       -1.4469365989        1.0913816208
 H         -0.7845719125        0.7810432522        0.0745813625
 H          0.7809972275        2.6313806510       -0.3514693330
 H          3.2034247157        2.2059814727       -0.3900518887
 H          4.0546221323       -0.0690374976       -0.0030934602
 H          2.4823650011       -1.9127296334        0.4259881904
  19
        -27.56524219
 N         -0.6255789095       -2.4854857511        0.6536220635
 C         -0.2571670060       -1.7586029941       -0.5961124590
 C          0.7219898505       -0.6559511492       -0.3388426440
 C          0.2792848629        0.6159990454       -0.0092261321
 C          1.1797056072        1.6264485650        0.2628834103
 C          2.5359150389        1.3745828913        0.2137755147
 C          2.9892048815        0.1102705173       -0.1051513993
 C          2.0869645829       -0.8992343717       -0.3768600108
 Cl        -3.1722538860        1.0743057859        0.0427664091
 H         -1.2990792197       -3.2432152524        0.4770553822
 H         -1.0456880330       -1.8380317543        1.3371705236
 H          0.2083391013       -2.8959671743        1.0933605375
 H         -1.1561928235       -1.3456513338       -1.0679296703
 H          0.1635597314       -2.4580802298       -1.3272860939
 H         -0.7801072158        0.8077136941        0.0337145649
 H          0.8229869861        2.6120620544        0.5154601221
 H          3.2399101856        2.1631058967        0.4264763614
 H          4.0481469434       -0.0898831490       -0.1403701194
 H          2.4382120936       -1.8880706519       -0.6198374845
  19
        -27.56520935
 N         -0.6388737700       -2.4660201840       -0.7295116040
 C         -0.2104582467       -1.8201202054        0.5453071007
 C          0.7427312119       -0.6897597658        0.3117586885
 C          0.2693114931        0.5854735394        0.0435322884
 C          1.1446069498        1.6234060276       -0.2062178618
 C          2.5060156006        1.3964173231       -0.1960672646
 C          2.9897110722        0.1294046316        0.0614379428
 C          2.1126445535       -0.9076592499        0.3108559162
 Cl        -3.1735350785        1.1011747473        0.0233459144
 H          0.1747872475       -2.8283861182       -1.2431399507
 H         -1.1080395500       -1.7811310000       -1.3409217022
 H         -1.2892121480       -3.2472690853       -0.5689718674
 H          0.2555931458       -2.5620131758        1.2038078590
 H         -1.0863322408       -1.4514677239        1.0911975982
 H         -0.7941096095        0.7585032387        0.0298390360
 H          0.7640687122        2.6111744992       -0.4110723795
 H          3.1902320613        2.2065771139       -0.3912583633
 H          4.0527508568       -0.0511183015        0.0663270517
 H          2.4877469600       -1.8983259365        0.5060610449
  19
        -27.56512251
 N         -0.6217496080       -2.4935341496        0.6729961708
 C         -0.2354320993       -1.7874854674       -0.5832431121
 C          0.7306457527       -0.6726823187       -0.3288848701
 C          0.2727760161        0.6021028419       -0.0325862758
 C          1.1607926882        1.6244233293        0.2359600868
 C          2.5194198516        1.3817393113        0.2175778255
 C          2.9875786108        0.1147009146       -0.0671297299
 C          2.0977933923       -0.9065575600       -0.3360021961
 Cl        -3.1736217077        1.0996806199        0.0130869705
 H          0.2065351140       -2.8910129621        1.1347087890
 H         -1.2896566495       -3.2602853997        0.4982904201
 H         -1.0562008219       -1.8376453947        1.3352161562
 H         -1.1284155723       -1.3904591432       -1.0795924907
 H          0.2040359430       -2.4974871344       -1.2929340078
 H         -0.7885502396        0.7867706252       -0.0114621348
 H          0.7924040260        2.6122054095        0.4619033837
 H          3.2136057377        2.1795411725        0.4279073831
 H          4.0483693311       -0.0783793907       -0.0775401522
 H          2.4605487697       -1.8974848148       -0.5520595840
  19
        -27.56500511
 N         -0.5998661691       -2.5185483166        0.6729584044
 C         -0.2335157766       -1.7971428579       -0.5805670221
 C          0.7288084904       -0.6789435368       -0.3268412862
 C          0.2674756287        0.5948113361       -0.0313241641
 C          1.1528160028        1.6197930185        0.2359835903
 C          2.5121075480        1.3809316741        0.2171598643
 C          2.9836759705        0.1150205959       -0.0668770946
 C          2.0965984006       -0.9088832204       -0.3345997601
 Cl        -3.1748647850        1.1229379665        0.0104293210
 H         -1.2608475476       -3.2876688164        0.4983482465
 H         -1.0340342726       -1.8715769952        1.3480370422
 H          0.2369413252       -2.9129432002        1.1218282347
 H         -1.1350669632       -1.4009958844       -1.0618728314
 H          0.2018018691       -2.4969343451       -1.3028699805
 H         -0.7942898590        0.7769789704       -0.0103563576
 H          0.7817977433        2.6067654888        0.4611620110
 H          3.2041489583        2.1808698338        0.4264407270
 H          4.0450004710       -0.0750648430       -0.0778830218
 H          2.4620032723       -1.8988275588       -0.5506949777
  19
        -27.56489262
 N         -0.5797658649       -2.5303394928       -0.7094405307
 C         -0.2319565406       -1.8145126179        0.5525548401
 C          0.7272014227       -0.6896433845        0.3170690716
 C          0.2626754899        0.5875135441        0.0417383135
 C          1.1455417659        1.6189985862       -0.2080825368
 C          2.5054527640        1.3834979419       -0.1917770493
 C          2.9801540355        0.1143692406        0.0719935144
 C          2.0955640198       -0.9161250803        0.3220434945
 Cl        -3.1760414302        1.1440444857        0.0008791754
 H          0.2635756672       -2.9223772878       -1.1478881188
 H         -1.0042761183       -1.8805327704       -1.3878777754
 H         -1.2428730325       -3.3005356511       -0.5479423856
 H          0.1989151246       -2.5163142845        1.2758132181
 H         -1.1411017885       -1.4263574053        1.0256503195
 H         -0.7995393979        0.7673430427        0.0222440598
 H          0.7720199783        2.6084328443       -0.4177988320
 H          3.1955232924        2.1885709057       -0.3873983916
 H          4.0419703779       -0.0730553076        0.0807360447
 H          2.4633570019       -1.9087189031        0.5213847347
  19
        -27.56477799
 N         -0.5423318570       -2.5712244191       -0.6790857593
 C         -0.2506727037       -1.8038829223        0.5668262047
 C          0.7147007476       -0.6849986856        0.3279265805
 C          0.2588295225        0.5895008710        0.0266511544
 C          1.1489743429        1.6140326884       -0.2259776244
 C          2.5076372178        1.3742287656       -0.1862129820
 C          2.9738624998        0.1077872793        0.1042495938
 C          2.0819781273       -0.9156920047        0.3571592522
 Cl        -3.1756993315        1.1646217274       -0.0378021277
 H          0.3203960494       -2.9743496954       -1.0668072675
 H         -0.9420563355       -1.9518869057       -1.3996497626
 H         -1.2071562411       -3.3392261778       -0.5143445000
 H          0.1512243393       -2.4742186685        1.3352208581
 H         -1.1804399770       -1.4017528423        0.9849083195
 H         -0.8022604482        0.7732023828       -0.0095950235
 H          0.7821498876        2.6014974567       -0.4558867521
 H          3.2033677905        2.1739079778       -0.3838736105
 H          4.0347437148       -0.0830571596        0.1318335884
 H          2.4431293104       -1.9060864726        0.5783195021
  19
        -27.56338266
 N         -0.2549556141       -2.8241018835        0.6504199805
 C         -0.7118908935       -1.4134767903        0.8157958699
 C          0.3902411484       -0.4300066205        0.5729222838
 C          0.6136595911        0.0820747919       -0.6965887403
 C          1.6489888331        0.9662001777       -0.9272217469
 C          2.4782898876        1.3440265713        0.1095073071
 C          2.2718557596        0.8342269756        1.3756639590
 C          1.2355916952       -0.0493900870        1.6046082654
 Cl        -2.7553991199        0.8951820783       -1.3680901886
 H         -1.0130836509       -3.4986445863        0.8205579050
 H          0.5131819097       -3.0353973509        1.3045105893
 H          0.1021478387       -2.9793242560       -0.3011163806
 H         -1.1167867023       -1.2657999092        1.8235522894
 H         -1.5433647215       -1.2068358053        0.1326363980
 H         -0.0327635520       -0.2162772519       -1.5047014846
 H          1.8096621421        1.3607842132       -1.9176552764
 H          3.2870208324        2.0342885393       -0.0696498912
 H          2.9208438078        1.1248396013        2.1862164429
 H          1.0759453905       -0.4524410100        2.5906518674
  19
        -27.56326503
 N          0.1939084543       -4.1363960156        0.1155347500
 C          1.0566787149       -3.1468249879        0.8245014474
 C          0.6624545924       -1.7347851348        0.5218366758
 C          1.2038009755       -1.0690502788       -0.5678944858
 C          0.8168071994        0.2223360650       -0.8667491306
 C         -0.1212508605        0.8614338327       -0.0820065515
 C         -0.6739282998        0.2065332043        0.9997143530
 C         -0.2861276655       -1.0847944581        1.2977013444
 Cl        -1.0814453580        4.1379846852       -0.8458099216
 H          0.4632076681       -5.1066132854        0.3272053083
 H          0.2536334680       -4.0038164780       -0.9048576494
 H         -0.7912927374       -4.0138189529        0.3825549350
 H          2.1065079196       -3.2998319178        0.5492686483
 H          1.0093900982       -3.3151990404        1.9063561532
 H          1.9311379739       -1.5719261835       -1.1829238581
 H          1.2466130116        0.7310621194       -1.7146631405
 H         -0.4234059482        1.8703256725       -0.3150438484
 H         -1.4101343366        0.7028601421        1.6115435048
 H         -0.7206049552       -1.5998435588        2.1380563204
