13
 energy: -15.050536596219 gnorm: 0.000736094653 xtb: 6.5.1 (fef0646)
N            0.99798745679401        0.18022622647426        0.09384519940499
C            2.48066286136767        0.01258753702305        0.03412437269042
C            3.02047240435968        0.98435839160189       -1.01710954605825
C            2.46226136104769        2.30485327077726       -0.77747566311959
C            1.90745980293077        3.33746825137301       -0.52901772834214
H            0.58518623767391       -0.23638730744216        0.93546215540938
H            0.54657259479804       -0.22471894709045       -0.73565477351434
H            0.84147011762030        1.21299623229384        0.07792612118848
H            2.73254909222683       -1.01930878934592       -0.20884679423890
H            2.89019365369360        0.26010365677469        1.01486917581734
H            2.75911463028454        0.65788896880593       -2.02682414794495
H            4.10845179635994        1.03104519494752       -0.95391902184780
H            1.49913799084220        4.28878731380638       -0.35062934944493
