  20
        -27.47379503
 N         -1.7612207981       -1.4653019804        0.1518034028
 C         -1.9674753559       -0.3157569208       -0.7727849912
 C         -1.8286754108        1.0508406169       -0.0965712078
 C         -0.5247745979        1.3005483757        0.6817062063
 C          0.7821428617        1.2091898955       -0.1386897515
 C          1.4959321538       -0.1045397459        0.0359007084
 O          2.7145971610       -0.2053174996       -0.5212743397
 O          0.9769000272       -1.0062180180        0.6480282227
 H         -1.9300765272       -2.3717618539       -0.3084376181
 H         -2.3673849613       -1.4100111295        0.9823766792
 H         -0.7705287964       -1.4464266280        0.4568944786
 H         -2.9593746920       -0.4079172495       -1.2360714473
 H         -1.2505967372       -0.3984340357       -1.5997813525
 H         -2.6781432176        1.1842621918        0.5860967331
 H         -1.9469915703        1.8402903494       -0.8498628381
 H         -0.4519307963        0.5964006375        1.5205772159
 H         -0.5851830652        2.2901954454        1.1570586999
 H          1.4846185295        1.9984216748        0.1575730721
 H          0.5878194707        1.3785657222       -1.2023238929
 H          3.0888526116       -1.0807933294       -0.3246687738
