  35
        -45.99855261
 N         -5.2032271326        1.0979771480       -1.4710602392
 C         -5.5918968866       -0.0518256138       -0.6043181747
 C         -4.8589242591       -0.0487954280        0.7351186578
 C         -3.3727210427       -0.1788438053        0.5855447672
 C         -2.8019419295       -1.4031611852        0.2530163750
 C         -1.4443024238       -1.5277273953        0.0857578759
 C         -0.5890489200       -0.4215820861        0.2435795686
 C          0.8169597958       -0.5878365914        0.0647051501
 C          1.7591290319        0.3965268950        0.1933783079
 C          3.1652463386        0.2294882216        0.0159388551
 C          4.0217147950        1.3337970898        0.1882937708
 C          5.3800357259        1.2079778494        0.0260624872
 C          5.9310187977       -0.0160056816       -0.3122906586
 C          5.1114271455       -1.1177593168       -0.4880321186
 C          3.7513037611       -1.0040979375       -0.3282168199
 C         -1.1780641219        0.8123420519        0.5765965281
 C         -2.5379421189        0.9238426050        0.7404875776
 H         -4.1936867236        1.0833590683       -1.6584027129
 H         -5.4232153617        1.9898635856       -1.0123059808
 H         -5.6930834657        1.0755231310       -2.3735841956
 H         -5.3831843556       -0.9876473373       -1.1345689558
 H         -6.6767420464       -0.0340099583       -0.4456828453
 H         -5.2232256800       -0.8604071879        1.3744203598
 H         -5.0877814943        0.8745933051        1.2756101011
 H         -3.4402966555       -2.2609440016        0.1280817720
 H         -1.0210284637       -2.4836997860       -0.1699326353
 H          1.1478681308       -1.5777834876       -0.1902686889
 H          1.4285269633        1.3857788047        0.4517955578
 H          3.5987518931        2.2878686485        0.4519039058
 H          6.0197908908        2.0643871164        0.1625964028
 H          6.9969471901       -0.1110677587       -0.4388615621
 H          5.5437413876       -2.0690968937       -0.7517548680
 H          3.1312540699       -1.8708948293       -0.4696902018
 H         -0.5605337904        1.6828200512        0.7049142360
 H         -2.9704966945        1.8759251300        0.9957221909
