  35
        -45.89055945
 N         -5.3995098489        0.6330799164        1.5214343072
 C         -5.5231808872       -0.5716613627        0.6531506460
 C         -4.8444246261       -0.3858666295       -0.7019118348
 C         -3.3648722867       -0.1660496480       -0.5895618800
 C         -2.8264740482        1.1171883331       -0.6368689643
 C         -1.4722223166        1.3208346359       -0.5120578686
 C         -0.5881352814        0.2411429868       -0.3307115430
 C          0.8147263377        0.4898260876       -0.2144215497
 C          1.7845071144       -0.4629166676       -0.0545032335
 C          3.1877852928       -0.2132612730        0.0576304585
 C          3.7389926180        1.0830404053        0.0276238581
 C          5.0967015987        1.2753977238        0.1367642840
 C          5.9479842115        0.1923507558        0.2783781646
 C          5.4319144934       -1.0922869409        0.3112714469
 C          4.0761518915       -1.2965910424        0.2036790355
 C         -1.1442996682       -1.0503690298       -0.2760998499
 C         -2.5012139352       -1.2416655794       -0.4006102946
 H         -5.8548978703        0.4960571976        2.4372914311
 H         -5.8358848728        1.4553079906        1.0777906641
 H         -4.4095306433        0.8632563286        1.6962261741
 H         -6.5855243210       -0.8117299382        0.5189551726
 H         -5.0853262357       -1.4343315276        1.1691150433
 H         -5.2961121235        0.4643266437       -1.2239932596
 H         -5.0277198537       -1.2543429645       -1.3452556888
 H         -3.4852319282        1.9576813432       -0.7796560500
 H         -1.0738646917        2.3208308420       -0.5580024375
 H          1.1185070434        1.5199717659       -0.2653492900
 H          1.4820151770       -1.4939525260       -0.0129717357
 H          3.0940484790        1.9372436896       -0.0807337856
 H          5.5022795886        2.2747228620        0.1119464777
 H          7.0119689351        0.3491204960        0.3626543527
 H          6.0968198999       -1.9346992642        0.4210735694
 H          3.6810093504       -2.2986348239        0.2291860481
 H         -0.5036382659       -1.9035635506       -0.1357797720
 H         -2.9100019466       -2.2377375936       -0.3570476365
