35
 energy: -46.001545289720 gnorm: 0.000758843720 xtb: 6.5.1 (fef0646)
N            2.72665204443019        1.16105526759073       -3.49461996351633
C            2.30404124115627        1.71465466629324       -2.18556781014603
C            2.87983152460395        0.86928225756401       -1.04957522792203
C            4.38297755280681        0.95240625450513       -1.01409009178432
C            5.01402265438905        2.06156912868703       -0.45931607072653
C            6.38983967433280        2.15837609023846       -0.43561343267441
C            7.18956007922973        1.14469811472081       -0.97171976454736
C            8.63994895353351        1.18333154375683       -0.95955853759591
C            9.40139175240645        2.01275669626373       -0.23291248251589
C           10.85269326056019        2.03126564286441       -0.20026418873635
C           11.64713270598967        1.36228306837329       -1.13475195225425
C           13.02489269819558        1.40532393286163       -1.05173170515436
C           13.64493232799752        2.11509190202822       -0.03554119202466
C           12.87226755464153        2.79066998145988        0.89530242228437
C           11.49431228505701        2.75324504686878        0.81025717683642
C            6.54946997810708        0.04103106533417       -1.54130744343780
C            5.17176129460702       -0.05407104112019       -1.56045176774926
H            2.40748843285301        1.75507618053170       -4.26777175904667
H            2.34298125406518        0.21677497625705       -3.62061245555531
H            3.75217426907459        1.09668175226350       -3.52209253429710
H            1.21628960302541        1.71876303011038       -2.13117588555871
H            2.66775845869161        2.73774487050135       -2.09704477945948
H            2.56971848711114       -0.16988052358272       -1.15905332971525
H            2.47823743922054        1.23920106948175       -0.10684463816678
H            4.42101687116320        2.85513083530198       -0.02871527720945
H            6.85159761123011        3.03183643976891       -0.00253192654479
H            9.11642312926237        0.43346258047688       -1.57742407643081
H            8.93307150009161        2.72629441210605        0.43250451614844
H           11.18691983420604        0.81377431345659       -1.94171599249534
H           13.62319903071814        0.88371554354303       -1.78422978639879
H           14.72241343891830        2.14456371386922        0.02787110458485
H           13.34814016160057        3.34904347733323        1.68799833803337
H           10.90048107809685        3.28242785430561        1.54167501441290
H            7.14792680748142       -0.75472871027460       -1.95987433947295
H            4.71370501114613       -0.93723143374074       -1.98066016116509
