  18
        -29.23321499
 N         -0.3489959072       -1.2786153337        1.0710240746
 C          0.2396056993       -2.0672388966       -0.0388143784
 C          0.7812902340       -1.1836759780       -1.1601548945
 C          2.0163244186       -0.3640142198       -0.7701412420
 C          1.6994290290        0.8071474021        0.1170995919
 O          1.3290566941        1.9499593885       -0.5029294725
 O          1.7516258268        0.6975900109        1.3240006711
 Cl        -3.0424612457        0.5265024996       -0.1285871483
 H         -1.1846139363       -0.7551510000        0.7544489505
 H          0.3491746996       -0.5755735832        1.3722833287
 H         -0.6103597705       -1.8550321862        1.8857126750
 H         -0.5175081477       -2.7611549555       -0.4254056653
 H          1.0478007379       -2.6983233056        0.3502489482
 H         -0.0066367489       -0.4999194468       -1.4962942343
 H          1.0181068262       -1.8089557645       -2.0312383816
 H          2.5146896896        0.0244929613       -1.6646838346
 H          2.7487043871       -1.0005852755       -0.2652135699
 H          1.1608247005        2.6119689249        0.1957484144
