  18
        -29.32261638
 N         -1.7744157210        1.8741189778       -0.3642688639
 C         -0.6520347163        2.2690974446        0.5325579366
 C          0.6656999521        1.5918539716        0.1690786521
 C          0.6501437062        0.0821162791        0.3720964207
 C          1.9748968600       -0.5490891418        0.0378980027
 O          2.5898411242       -0.1018401647       -1.0799877258
 O          2.4281872364       -1.4197844148        0.7490488176
 Cl        -2.4145755100       -1.5847706076       -0.0875630948
 H         -1.9691584105        0.8616995419       -0.2929134789
 H         -1.5473014911        2.0766703732       -1.3456297972
 H         -2.6426539285        2.3723837082       -0.1304482725
 H         -0.9141416361        2.0321314537        1.5699691094
 H         -0.5359111449        3.3593023606        0.4989021204
 H          1.4871775015        2.0201615951        0.7554730900
 H          0.9164663591        1.8084404012       -0.8750591304
 H         -0.1215680064       -0.3809354768       -0.2476517078
 H          0.3957541231       -0.1592037743        1.4081084993
 H          3.4219764752       -0.5819251527       -1.1923200529
