  18
        -29.23321499
 N         -0.3489959072       -1.2786153337        1.0710240746
 C          0.2396056993       -2.0672388966       -0.0388143784
 C          0.7812902340       -1.1836759780       -1.1601548945
 C          2.0163244186       -0.3640142198       -0.7701412420
 C          1.6994290290        0.8071474021        0.1170995919
 O          1.3290566941        1.9499593885       -0.5029294725
 O          1.7516258268        0.6975900109        1.3240006711
 Cl        -3.0424612457        0.5265024996       -0.1285871483
 H         -1.1846139363       -0.7551510000        0.7544489505
 H          0.3491746996       -0.5755735832        1.3722833287
 H         -0.6103597705       -1.8550321862        1.8857126750
 H         -0.5175081477       -2.7611549555       -0.4254056653
 H          1.0478007379       -2.6983233056        0.3502489482
 H         -0.0066367489       -0.4999194468       -1.4962942343
 H          1.0181068262       -1.8089557645       -2.0312383816
 H          2.5146896896        0.0244929613       -1.6646838346
 H          2.7487043871       -1.0005852755       -0.2652135699
 H          1.1608247005        2.6119689249        0.1957484144
  18
        -29.23308924
 N         -0.3480930402       -1.2801091893        1.0729411148
 C          0.2392548311       -2.0686820385       -0.0375919229
 C          0.7795338984       -1.1853125395       -1.1597416898
 C          2.0135550031       -0.3636711668       -0.7709030387
 C          1.6957356592        0.8062174795        0.1176836264
 O          1.3195083575        1.9479532901       -0.5007643300
 O          1.7522946984        0.6962514038        1.3243513574
 Cl        -3.0354421611        0.5302761993       -0.1313021311
 H         -0.6106056043       -1.8582792764        1.8900289194
 H         -1.1817847193       -0.7567812893        0.7572225611
 H          0.3496376766       -0.5785071624        1.3738545330
 H         -0.5183250602       -2.7626124715       -0.4232426179
 H          1.0478583342       -2.6997431457        0.3506428323
 H         -0.0094061294       -0.5029356674       -1.4963103642
 H          1.0170198577       -1.8110451497       -2.0303205201
 H          2.5098742796        0.0264327182       -1.6658861147
 H          2.7478301507       -0.9992530937       -0.2674840661
 H          1.1517193869        2.6092984262        0.1986505442
  18
        -29.23304095
 N         -0.3513483908       -1.2736160682        1.0654160820
 C          0.2375907026       -2.0624656569       -0.0440893208
 C          0.7867358998       -1.1792541751       -1.1620836035
 C          2.0239780258       -0.3652795967       -0.7666220709
 C          1.7089037491        0.8101752090        0.1156514771
 O          1.3539895555        1.9549143992       -0.5098485304
 O          1.7495775236        0.7025183737        1.3231453238
 Cl        -3.0600483934        0.5154257471       -0.1203427822
 H          0.3476175293       -0.5686000830        1.3668855612
 H         -0.6124001145       -1.8507554633        1.8813110976
 H         -1.1853536303       -0.7530098753        0.7501707149
 H         -0.5208875434       -2.7528318525       -0.4343608172
 H          1.0420051166       -2.6973633450        0.3466072159
 H          0.0028523241       -0.4919064619       -1.5003080854
 H          1.0242273239       -1.8044008814       -2.0330961311
 H          2.5297531304        0.0181926290       -1.6591877580
 H          2.7498988888       -1.0046582230       -0.2559452243
 H          1.1855236576        2.6197843621        0.1860425880
  18
        -29.23187102
 N         -0.8060987735       -0.0497018414       -1.3516751053
 C          0.2118362788       -1.1284382797       -1.3148322174
 C          0.8326290498       -1.3040431563        0.0730535786
 C          1.0883165856        0.0093103990        0.8170919872
 C          1.8279195291        1.0219559845       -0.0108067592
 O          3.1601217338        0.8443657275       -0.1469868002
 O          1.2165075506        1.9289865205       -0.5364957891
 Cl        -3.1377750039       -0.6377289031        1.1299391648
 H         -1.5470851277       -0.2046971181       -0.6446920922
 H         -1.2481492247        0.0563535264       -2.2792808068
 H         -0.3196002434        0.8344673474       -1.1218395030
 H          0.9986141855       -0.8818541534       -2.0396622893
 H         -0.2259053207       -2.0709102863       -1.6670075331
 H          1.7763283253       -1.8567881873       -0.0177019467
 H          0.1826131381       -1.9417875558        0.6856334679
 H          1.6530075346       -0.1699811573        1.7378245492
 H          0.1399729500        0.4571711812        1.1297159232
 H          3.4903856409        1.5748153931       -0.7053062852
  18
        -29.23171719
 N         -0.8001186236       -0.0693811865       -1.3583578046
 C          0.2191993918       -1.1460902708       -1.3042951857
 C          0.8330604412       -1.3055253080        0.0886640240
 C          1.0810939315        0.0161439041        0.8204625767
 C          1.8232992897        1.0218965222       -0.0134646060
 O          3.1564909007        0.8453750284       -0.1411272713
 O          1.2133375266        1.9227936632       -0.5512741996
 Cl        -3.1361796469       -0.6211680001        1.1263175419
 H         -1.2388571611        0.0257764133       -2.2907908892
 H         -0.3153152977        0.8191506161       -1.1356860747
 H         -1.5416627562       -0.2167979508       -0.6550129745
 H          1.0093293574       -0.9061910914       -2.0277213934
 H         -0.2152108461       -2.0930513325       -1.6484674433
 H          1.7787892645       -1.8564656825        0.0086976475
 H          0.1815866642       -1.9387789696        0.7043485867
 H          1.6406152435       -0.1521485256        1.7464114725
 H          0.1297745386        0.4648661858        1.1226317357
 H          3.4881112017        1.5709570984       -0.7049783834
  18
        -29.22626467
 N         -0.3754907096       -0.5972186145       -1.3541445064
 C          0.4169769054       -1.5692839279       -0.5613211037
 C          0.5715709498       -1.1414660777        0.8981399502
 C          0.8505390217        0.3525802402        1.0693437405
 C          1.9620509569        0.8311556256        0.1816315112
 O          1.6172155819        1.6542198372       -0.8383312190
 O          3.0975260780        0.4601997153        0.3824145341
 Cl        -3.3878877546       -0.0595432170        0.2541869266
 H         -1.3048677823       -0.4341060838       -0.9262769406
 H         -0.5118102283       -0.8958910645       -2.3339341246
 H          0.1368346789        0.3028207614       -1.3595326278
 H          1.4091610867       -1.6620601973       -1.0219717252
 H         -0.0338470118       -2.5673140232       -0.6283743837
 H          1.3839086116       -1.7155646435        1.3618435070
 H         -0.3328511611       -1.4088078239        1.4591194907
 H          1.1043993827        0.5863631861        2.1083064814
 H         -0.0462251249        0.9358832658        0.8387620939
 H          2.4434035619        1.8855347282       -1.3048618589
  18
        -29.22618403
 N         -0.3803905881       -0.5903187434       -1.3486190532
 C          0.4171597887       -1.5674012960       -0.5671190060
 C          0.5817263886       -1.1492719599        0.8940978794
 C          0.8607998790        0.3438037244        1.0738688355
 C          1.9645540782        0.8302039154        0.1807933085
 O          1.6109085214        1.6621683744       -0.8289649558
 O          3.1019353872        0.4579853990        0.3679894698
 Cl        -3.3936831677       -0.0595684318        0.2559461271
 H          0.1329583968        0.3130135036       -1.3497887637
 H         -1.3062740273       -0.4313173487       -0.9161667805
 H         -0.5210934046       -0.8815371922       -2.3286613592
 H          1.4062592809       -1.6571359501       -1.0349532481
 H         -0.0340727490       -2.5650066446       -0.6377183664
 H          1.3977767048       -1.7259096561        1.3480506379
 H         -0.3184411410       -1.4212564846        1.4596717827
 H          1.1229044134        0.5701710403        2.1124338042
 H         -0.0383805477        0.9279049002        0.8550104045
 H          2.4332346946        1.8984233586       -1.2998362632
  18
        -29.22607560
 N         -0.3791075552       -0.5892176460       -1.3492677704
 C          0.4155453459       -1.5656555776       -0.5640206878
 C          0.5777837930       -1.1444286433        0.8965567096
 C          0.8591821400        0.3485594675        1.0730881858
 C          1.9653819501        0.8304413963        0.1806049534
 O          1.6153562879        1.6617902511       -0.8308967989
 O          3.1014016222        0.4551358218        0.3698897885
 Cl        -3.3935893198       -0.0631184452        0.2546135675
 H         -0.5188233800       -0.8831917325       -2.3319618589
 H          0.1340831973        0.3119366199       -1.3514301158
 H         -1.3044893740       -0.4287502991       -0.9194148287
 H          1.4054155141       -1.6578320476       -1.0297327041
 H         -0.0369726713       -2.5627672383       -0.6332564029
 H          1.3919007833       -1.7213735705        1.3535734916
 H         -0.3240353319       -1.4134124832        1.4609317484
 H          1.1197879199        0.5772986504        2.1115073744
 H         -0.0385359326        0.9336552456        0.8508916028
 H          2.4389139091        1.8945690401       -1.3013541823
  18
        -29.22535341
 N         -0.7399594929       -0.0855243477       -0.5158050378
 C         -0.0236348601       -1.3742309130       -0.6806336793
 C          1.4137324895       -1.1894428668       -1.1617812941
 C          2.3426304289       -0.5428206687       -0.1275327999
 C          2.1324542082        0.9379423833        0.0230863666
 O          2.8273457698        1.7338703750       -0.8203805373
 O          1.3532793195        1.3696761648        0.8461750020
 Cl        -3.8125448907       -0.4900537109        1.0280982549
 H         -1.6612849149       -0.1909877440       -0.0523432481
 H         -0.8825873851        0.3862899232       -1.4223747877
 H         -0.1504879583        0.5373977406        0.0624086157
 H         -0.5860865455       -2.0096937234       -1.3763563501
 H         -0.0200704123       -1.9138520758        0.2742305014
 H          1.4167665564       -0.5797488792       -2.0725386275
 H          1.8226706738       -2.1639430030       -1.4602226255
 H          3.3903918653       -0.7001130678       -0.4050972113
 H          2.2112867014       -1.0187591004        0.8485653710
 H          2.5915051829        2.6562717601       -0.6006417243
  18
        -29.22533036
 N         -0.4764434698       -0.8728872205        0.4174405519
 C         -0.0415866561       -0.9329834589       -0.9998873638
 C          1.4464462237       -1.2582137445       -1.1493361479
 C          2.3452584148       -0.5827877004       -0.1100338652
 C          2.0916574873        0.8925272222        0.0203262048
 O          2.6033803689        1.6885206760       -0.9436913440
 O          1.4316385943        1.3073265974        0.9505059434
 Cl        -3.8595698657       -0.1814300589        0.7087248830
 H         -1.4867511783       -0.6625647836        0.5173074783
 H          0.0572211014       -0.1068337514        0.8674098179
 H         -0.2722144591       -1.7501192616        0.9188030335
 H         -0.2508065304        0.0403651262       -1.4626473818
 H         -0.6553387499       -1.6564486820       -1.5510755021
 H          1.7813440305       -0.9731876571       -2.1548370347
 H          1.5901013494       -2.3448801012       -1.0951567056
 H          3.4019115880       -0.7365047274       -0.3522295500
 H          2.1940908622       -1.0386731406        0.8733002543
 H          2.3548815452        2.6061052971       -0.7186430874
  18
        -29.22525749
 N         -0.7417479343       -0.0801847891       -0.5173064437
 C         -0.0272749379       -1.3698834013       -0.6823428602
 C          1.4108137429       -1.1869163027       -1.1620300431
 C          2.3396767511       -0.5424032505       -0.1263894984
 C          2.1330652338        0.9389213963        0.0236472904
 O          2.8312444363        1.7328094634       -0.8190188488
 O          1.3538904947        1.3729356651        0.8455429817
 Cl        -3.8103482348       -0.4968269737        1.0286456875
 H         -0.8842805295        0.3932933787       -1.4251510615
 H         -0.1507381791        0.5426292719        0.0619037995
 H         -1.6600809031       -0.1853852347       -0.0550131256
 H         -0.5900697012       -2.0039617584       -1.3790559415
 H         -0.0252236210       -1.9103222457        0.2720713055
 H          1.4156399965       -0.5766107738       -2.0723662823
 H          1.8185230209       -2.1618507573       -1.4607278473
 H          3.3875031324       -0.7024255196       -0.4021417743
 H          2.2056358829       -1.0178620673        0.8495786237
 H          2.5972692703        2.6559456229       -0.6004182665
  18
        -29.22524237
 N         -0.4759436523       -0.8714901965        0.4200491719
 C         -0.0430806535       -0.9288689489       -0.9980193362
 C          1.4440789132       -1.2564496197       -1.1501724244
 C          2.3456251593       -0.5827620502       -0.1120880652
 C          2.0928593151        0.8924542454        0.0208858766
 O          2.6033619702        1.6897574612       -0.9426952748
 O          1.4344284945        1.3061106050        0.9526933498
 Cl        -3.8601334909       -0.1843339008        0.7062001435
 H         -0.2710672450       -1.7526478318        0.9207521833
 H         -1.4842031526       -0.6612586140        0.5212291042
 H          0.0580823471       -0.1077393612        0.8703580024
 H         -0.2510157860        0.0459939065       -1.4581733755
 H         -0.6588952404       -1.6498605912       -1.5501391739
 H          1.7776484647       -0.9716200369       -2.1561694819
 H          1.5860184475       -2.3433677822       -1.0965920517
 H          3.4016493798       -0.7365529035       -0.3569707091
 H          2.1965898617       -1.0398712418        0.8710063715
 H          2.3558395413        2.6070904968       -0.7155329344
  18
        -29.22515805
 N         -0.4734548401       -0.8818994636        0.4216730745
 C         -0.0409797668       -0.9395710085       -0.9965187165
 C          1.4473722761       -1.2615402857       -1.1491950880
 C          2.3469814576       -0.5830503333       -0.1125243790
 C          2.0871184447        0.8909522438        0.0201683323
 O          2.5894878837        1.6901454804       -0.9461136715
 O          1.4302132432        1.3019166508        0.9542502634
 Cl        -3.8535182895       -0.1707924905        0.7057929266
 H         -0.2677607078       -1.7624471278        0.9231330183
 H         -1.4817620095       -0.6718598436        0.5226915660
 H          0.0596464777       -0.1171412796        0.8713594934
 H         -0.2528949570        0.0338653284       -1.4578725788
 H         -0.6543006849       -1.6636839935       -1.5473270317
 H          1.7791322223       -0.9765049131       -2.1557389958
 H          1.5937106761       -2.3478204576       -1.0945395899
 H          3.4034475029       -0.7318399192       -0.3585806851
 H          2.2012955041       -1.0404639891        0.8709360002
 H          2.3379731858        2.6063478548       -0.7187665093
  18
        -29.22476131
 N         -1.1383675296       -0.9045002571        1.4597009444
 C          0.1264224035       -0.7414216502        0.6988595267
 C          0.0981610505        0.4718447671       -0.2195306848
 C          1.4141237135        0.6840799803       -0.9641353168
 C          2.5457440829        0.9725506106       -0.0214273414
 O          3.1012353640        2.2039013868       -0.0845318731
 O          2.9102234657        0.1205750506        0.7590827706
 Cl        -3.7621619455       -1.1659571544       -0.8021033449
 H         -1.9444290668       -1.0012036252        0.8151303321
 H         -1.3186943148       -0.0816223304        2.0571636951
 H         -1.1197966481       -1.7371233039        2.0697441070
 H          0.3273750812       -1.6460112527        0.1125051843
 H          0.9687067510       -0.6546848491        1.3972004067
 H         -0.1303308049        1.3657467664        0.3724277363
 H         -0.7319406517        0.3708865530       -0.9294237522
 H          1.3339125722        1.5132937332       -1.6744781064
 H          1.6648256043       -0.2048743290       -1.5502966245
 H          3.8132760964        2.2299852848        0.5836646920
  18
        -29.22470512
 N         -0.3926570956       -0.7270865510        1.0168787966
 C          0.3162545677       -1.5763028468        0.0222775625
 C          0.6360668145       -0.7870183764       -1.2490198754
 C          1.9463819054        0.0025569006       -1.1682047091
 C          2.0280799493        0.9475744393       -0.0012872399
 O          3.1906415637        0.9483228081        0.6907999719
 O          1.0942551405        1.6635762695        0.2896044729
 Cl        -3.6676756550       -0.2433891489        0.0062764265
 H         -0.3681640210       -1.1102469935        1.9780294797
 H         -1.3794196592       -0.5755120213        0.7474508949
 H          0.0616111392        0.2016497256        1.0101656805
 H         -0.2988399186       -2.4577316815       -0.1998859420
 H          1.2465697645       -1.9655350987        0.4536987077
 H         -0.1897422524       -0.0935315617       -1.4461989994
 H          0.6674203711       -1.4601459804       -2.1158202831
 H          2.1052719628        0.5768468966       -2.0865894813
 H          2.7913293543       -0.6893797261       -1.0967055663
 H          3.1014028362        1.6185951510        1.3962488579
  18
        -29.22464743
 N         -1.1412296889       -0.8964444955        1.4589641721
 C          0.1240737835       -0.7357458877        0.6984661774
 C          0.0988971484        0.4780309283       -0.2193262863
 C          1.4151661812        0.6867265072       -0.9644011161
 C          2.5479210869        0.9720193879       -0.0220354811
 O          3.1069009107        2.2017321329       -0.0855473526
 O          2.9100383508        0.1189668975        0.7583678389
 Cl        -3.7639708628       -1.1735348638       -0.8006250491
 H         -1.1234430438       -1.7300189666        2.0730772467
 H         -1.9454845797       -0.9943941240        0.8153362666
 H         -1.3212930624       -0.0729606375        2.0534260214
 H          0.3230497195       -1.6405387021        0.1117552866
 H          0.9664041703       -0.6513126831        1.3970259245
 H         -0.1266525429        1.3723363911        0.3731569070
 H         -0.7318274397        0.3798581343       -0.9288781372
 H          1.3370178949        1.5161869401       -1.6746812697
 H          1.6632348976       -0.2028876273       -1.5506762329
 H          3.8191565232        2.2261184241        0.5824701379
  18
        -29.22418057
 N         -0.9510022583       -2.1536320945        0.6375289211
 C          0.3886183128       -1.5204544330        0.5400072305
 C          0.6484502569       -0.9241604169       -0.8360380845
 C          1.9815402789       -0.1848537752       -0.9208210065
 C          2.0147662180        1.0039483020       -0.0052661185
 O          2.0636142751        2.2252834845       -0.5835600154
 O          1.9817182583        0.8395121917        1.1946236106
 Cl        -3.3048824304        0.2935734333       -0.0828234892
 H         -1.6950585075       -1.4595994897        0.4401120527
 H         -1.1282632403       -2.5463628403        1.5770903338
 H         -1.0518266991       -2.9175985067       -0.0482748083
 H          1.1674462867       -2.2531742665        0.7826629855
 H          0.4798132889       -0.7357827746        1.3020757611
 H         -0.1637094319       -0.2318157422       -1.0867422775
 H          0.6001672272       -1.7177813534       -1.5916462958
 H          2.1764813612        0.1578138447       -1.9421818157
 H          2.8038993572       -0.8552960801       -0.6546021465
 H          2.0790718632        2.8824986723        0.1389315347
  18
        -29.22407658
 N         -0.9550918989       -2.0713839635       -0.3223421115
 C          0.5120757238       -2.0535594219       -0.5516290828
 C          1.2958495690       -1.5787859157        0.6653914615
 C          1.0278368476       -0.1175298440        1.0154624761
 C          1.3412381793        0.8036462920       -0.1292277765
 O          0.6537332239        1.9668896726       -0.1793692364
 O          2.1810703486        0.4985638214       -0.9480019822
 Cl        -2.4198573098        1.0432917001        0.2637300165
 H         -1.4683837042       -2.4499941008       -1.1382011167
 H         -1.3229444557       -1.1212568867       -0.1444890167
 H         -1.1946359186       -2.6534508153        0.4949574154
 H          0.7393936393       -1.4040027094       -1.4064172339
 H          0.8424759660       -3.0578359555       -0.8460674039
 H          2.3703212384       -1.6988319250        0.4761707747
 H          1.0677788060       -2.2229416028        1.5232040704
 H          1.6212043680        0.1898464249        1.8827065475
 H         -0.0184116515        0.0241189889        1.3005290701
 H          0.9784212657        2.4554773429       -0.9605028927
  18
        -29.22404035
 N         -0.9501726018       -2.1523401855        0.6427536027
 C          0.3875490284       -1.5155849048        0.5425404683
 C          0.6424206364       -0.9171386634       -0.8334838411
 C          1.9769571378       -0.1809797292       -0.9232563068
 C          2.0185097991        1.0056075975       -0.0051516909
 O          2.0758264825        2.2278500331       -0.5808713375
 O          1.9849439702        0.8388235856        1.1943910934
 Cl        -3.3092890425        0.2853627696       -0.0876022251
 H         -1.1255364784       -2.5451211367        1.5847090733
 H         -1.0500386554       -2.9183783437       -0.0428320205
 H         -1.6940334184       -1.4627121968        0.4458693064
 H          1.1686691330       -2.2468337773        0.7822073410
 H          0.4789405777       -0.7315909419        1.3052803973
 H         -0.1692691716       -0.2224281786       -1.0791276714
 H          0.5887473571       -1.7092447284       -1.5903119585
 H          2.1674708984        0.1635954862       -1.9448169865
 H          2.7989624792       -0.8542445439       -0.6631335852
 H          2.0971223023        2.8832601421        0.1431087076
