18
 energy: -29.319980828649 gnorm: 0.000574454426 xtb: 6.5.1 (fef0646)
N            0.97476836320480       -0.19032888813352        0.18378094822898
C            2.44845932460585       -0.15364114035610        0.21065865559244
C            2.99308886046038       -1.07077703405851        1.30145710922664
C            4.51956888408615       -1.03630216952790        1.33535280843322
C            5.07068057348150       -1.86967269001272        2.46831296173069
O            6.39896182698514       -1.92685912680835        2.56068678701603
O            4.38331217439982       -2.46189512228122        3.26724010310070
Cl          -0.03220503787262        1.80573295394680       -1.87701891586061
H            0.60775274463851        0.47987942746510       -0.54180642169752
H            0.58724765608789        0.09467897754641        1.08667479885690
H            0.63399092645352       -1.12605371866332       -0.04862736988492
H            2.76140503206893        0.87605629762105        0.38352490826779
H            2.81828921170087       -0.45717412822341       -0.76835857533731
H            2.67074203037259       -2.09881086365879        1.13335299102396
H            2.61967460325321       -0.76420915387360        2.27921638968793
H            4.86687266012890       -0.00925790381859        1.46869355086026
H            4.92763919055050       -1.41320236534867        0.39533030434231
H            6.86840097539364       -1.41685335181474        1.87601896641238
