  47
        -77.52759862
 N         -6.8817300181       -2.8131839523       -0.0617325644
 C         -7.7569674732       -1.8075672785        0.6089240850
 C         -7.8120226550       -0.4695944369       -0.1327226416
 C         -6.5363792105        0.3002129355       -0.0860284660
 C         -6.4151182058        1.6608926897       -0.0700480977
 C         -5.0799099017        2.1256128736       -0.0445942237
 C         -4.1399652385        1.1194943141       -0.0429890030
 C         -2.7203143038        1.2542728084       -0.0257294019
 C         -1.9846552291        2.4240099394       -0.0019062610
 C         -0.5942819238        2.2390869141        0.0093338442
 C          0.3498350406        3.3886165769        0.0332615116
 C         -0.2150318135        0.8921623535       -0.0072530393
 C          1.1091989215        0.3696915001       -0.0045397874
 C          1.4607174294       -0.9831763814       -0.0229458317
 C          0.5289589060       -2.0237219261       -0.0449370669
 N         -0.2852208431       -2.8545280922       -0.0624823906
 C          2.8655918090       -1.2153719611       -0.0171907215
 C          3.4077550333       -2.5036105038       -0.0349462167
 N          3.8990424485       -3.5578710379       -0.0500414305
 C          3.6339047350       -0.0499275794        0.0073347658
 C          5.0626882113        0.0205510012        0.0183385192
 C          5.8432952965        1.1689819725        0.0477343245
 C          5.3208196445        2.5622154666        0.0764528723
 C          7.2346916630        0.8949903683        0.0476432135
 C          7.5406714753       -0.4256100133        0.0206583359
 S          6.1201969987       -1.3745213890       -0.0045285038
 S          2.5645459426        1.3102833545        0.0217014992
 S         -1.6510754761       -0.0981853218       -0.0337813364
 S         -4.9658266762       -0.4106061747       -0.0664159897
 H         -7.2205128502       -3.0255918814       -1.0119680010
 H         -6.8393103345       -3.7011846027        0.4619875331
 H         -5.9211352363       -2.4560767301       -0.1506127905
 H         -7.4014609022       -1.6415807234        1.6327943109
 H         -8.7656129120       -2.2286544286        0.7080893460
 H         -8.6145099905        0.1550698234        0.2774721225
 H         -8.0781933024       -0.6457633162       -1.1804684902
 H         -7.2687390799        2.3226073475       -0.0824000570
 H         -4.8205159784        3.1732769136       -0.0322005181
 H         -2.4411464581        3.4010539692        0.0066751072
 H         -0.1848073511        4.3386771717        0.0555307732
 H          0.9864014346        3.3843812998       -0.8521429369
 H          0.9894631892        3.3453259200        0.9152901349
 H          6.1336877838        3.2875964809        0.1089571405
 H          4.6956992823        2.7225306006        0.9554863921
 H          4.7237811945        2.7695431649       -0.8120913948
 H          7.9821680053        1.6748281209        0.0676371573
 H          8.5331969591       -0.8383395606        0.0160360382
