25
 energy: -36.601195291317 gnorm: 0.000945939832 xtb: 6.5.1 (fef0646)
N            3.05550569550780       -0.25425674634780       -1.23932710892590
C            2.67360289680151        1.07642658905856       -0.71848489874294
C            3.09428173849570        1.23069863772266        0.74527691578532
C            4.57378112698085        1.32821946338219        0.91326802689640
C            5.31369547227900        2.40131450659896        1.30741361841464
C            6.69840391307276        2.14570941401294        1.35355430363538
C            7.03191050120148        0.86643971848975        0.98922536024132
C            8.32156252829881        0.25821486192140        0.89748794103923
C            9.54586549919272        0.79858718176348        1.19657524020527
C           10.60885038205962       -0.09978371676718        0.98077356870078
C           10.19887740058662       -1.31073910657634        0.52067107815642
S            8.49762162401335       -1.38497102913147        0.34225805051297
S            5.61244061528342       -0.04053487912147        0.60468515406415
H            2.80231363592114       -0.34689220790693       -2.22869355664260
H            2.59220249921513       -0.99733913945810       -0.70351917515233
H            4.07262880849255       -0.38907915379646       -1.13894949462959
H            1.59270368167334        1.19380635840221       -0.78903024695324
H            3.15263712233413        1.84927596210669       -1.31919365354762
H            2.71805448426375        0.38835655927498        1.32708886175716
H            2.64805721205927        2.14070759300446        1.14430017289942
H            4.89160016587814        3.35616693506320        1.56335037769467
H            7.43021789129007        2.87847664984774        1.64362742929453
H            9.68230922447941        1.80049067530277        1.56033549677717
H           11.64044634543130        0.14619460278660        1.16056632223026
H           10.78954953518832       -2.17008972963282        0.27511021628979
