  21
  -32.405518209999997       0.99937245522651241      !mtd1
 N         -0.8215901535        0.8933568533        1.3579486444
 C         -0.7091926506        2.1316979153        0.5471496752
 C         -0.3452242122        1.8731755583       -0.9135802604
 C          1.0351134730        1.2269794949       -1.1095454595
 C          1.0578563325       -0.3061912192       -0.9216024386
 C          2.0312711038       -0.7325532682        0.1401063346
 O          3.1664700564       -1.3410817366       -0.2714050804
 O          1.7802724762       -0.5076393394        1.3043321276
 Cl        -3.0218382681       -1.2628119367       -0.2076485307
 H          0.0910698984        0.3985668620        1.3926045742
 H         -1.5130338197        0.2405795910        0.9455629825
 H         -1.1057595980        1.0853008789        2.3310654283
 H          0.0412174933        2.7903603611        1.0007683257
 H         -1.6564795001        2.6825227223        0.6063036318
 H         -0.3876850225        2.8225987760       -1.4641019607
 H         -1.1098883532        1.2402224090       -1.3776500080
 H          1.7460645665        1.6848383952       -0.4106748372
 H          1.4280822977        1.4772804835       -2.1046935814
 H          1.3197613405       -0.8160514706       -1.8551471846
 H          0.0639978947       -0.6777816377       -0.6560539837
 H          3.6865121357       -1.5458674998        0.5300750108
  21
  -32.398550620000002        6.2754477348764888E-004 !md1
 N         -0.8336147078        0.9680594545        1.2927204764
 C         -0.8987910390        2.0745672490        0.3028598028
 C         -0.1832114578        1.7232423223       -1.0017482092
 C          1.3599417564        1.7863512859       -0.8923788267
 C          2.0562065698        0.4385704543       -1.0831645423
 C          1.7376060938       -0.5273312784        0.0199018944
 O          1.2852960720       -1.7493094763       -0.3441241960
 O          1.8813559957       -0.1908504335        1.1761424615
 Cl        -2.5816274409       -1.7502817968        0.0670980216
 H          0.1380991536        0.6171929601        1.3747259170
 H         -1.4020071151        0.1605861935        0.9775651748
 H         -1.1615242094        1.2456887080        2.2310165921
 H         -0.4578949818        2.9831408573        0.7298902033
 H         -1.9514709193        2.3204596995        0.1140250233
 H         -0.5297508176        2.3855601766       -1.8064177192
 H         -0.4871601524        0.7174965039       -1.3146680128
 H          1.6385022941        2.1841764666        0.0910194430
 H          1.7592989521        2.5127535830       -1.6131507483
 H          3.1430529092        0.5657038306       -1.1221733873
 H          1.7645958421       -0.0079236784       -2.0382441801
 H          1.1500722681       -2.2613142729        0.4776035866
