  21
        -29.29371859
 N         -4.0601024406        1.0843938597        1.0440493196
 C         -4.1869289976       -0.2877756048        0.4733406370
 C         -3.3587383490       -0.4798182751       -0.7964280146
 C         -1.8821301690       -0.3364329086       -0.5687449031
 C         -1.2159182667        0.8283192131       -0.9224427378
 C          0.1420979092        0.9583674491       -0.7033658588
 C          0.8425508463       -0.0741490880       -0.1262941366
 Br         2.6911723571        0.0999167302        0.1654485385
 C          0.2014488411       -1.2347061593        0.2355998568
 C         -1.1568650342       -1.3648386950        0.0163028961
 H         -4.3837999669        1.7965528983        0.3732542069
 H         -3.0806308265        1.2997636181        1.2805986881
 H         -4.6200470850        1.1941384514        1.9057867368
 H         -5.2458042186       -0.4939816612        0.2723524548
 H         -3.8795329364       -1.0201485178        1.2288300043
 H         -3.6787848435        0.2434249099       -1.5530453937
 H         -3.5548560249       -1.4642691975       -1.2353958641
 H         -1.7633526974        1.6336930552       -1.3822611322
 H          0.6631829186        1.8599399105       -0.9860464252
 H          0.7678550351       -2.0365992892        0.6834198524
 H         -1.6600277564       -2.2765440288        0.2925682476
  21
        -29.29114330
 N         -5.5236220502        0.2051560627        0.2538799341
 C         -4.0860250275        0.0239893022       -0.1076876458
 C         -3.1362078108        0.4742592718        0.9981328068
 C         -1.6870977740        0.3002665826        0.6442746375
 C         -0.9850194589        1.3170629078        0.0130772271
 C          0.3442101916        1.1514148609       -0.3258719919
 C          0.9787256972       -0.0342321068       -0.0406235224
 Br         2.7883358208       -0.2575395691       -0.4969871956
 C          0.2996461673       -1.0572482692        0.5768895856
 C         -1.0298738804       -0.8915729076        0.9161047123
 H         -6.1510428298       -0.1055460213       -0.5030240040
 H         -5.7371231943        1.1945744315        0.4469335826
 H         -5.7664238773       -0.3346437085        1.0999096954
 H         -3.8696680586        0.5777519789       -1.0284939556
 H         -3.9008385659       -1.0294876382       -0.3475045140
 H         -3.3536999155       -0.0773719744        1.9181108752
 H         -3.3265903931        1.5238184523        1.2422516330
 H         -1.4834077659        2.2455985872       -0.2090363244
 H          0.8933006767        1.9436574769       -0.8108120956
 H          0.8138421880       -1.9809159678        0.7931192135
 H         -1.5635785913       -1.6918504678        1.4012027406
  21
        -29.28844583
 N         -5.5562213301        0.1372536468        0.6766816298
 C         -4.1050698911       -0.2080183072        0.7572604646
 C         -3.2470593605        0.6377661372       -0.1812312869
 C         -1.7626578250        0.3848568440       -0.1345593376
 C         -0.9223480705        1.1871770263       -0.8945924403
 C          0.4453105974        0.9912188155       -0.8911538054
 C          0.9878187540       -0.0132069529       -0.1265060090
 Br         2.8480672596       -0.2823965666       -0.1195003409
 C          0.1776036563       -0.8226322794        0.6324589860
 C         -1.1907471853       -0.6258737166        0.6278970790
 H         -6.1238528761       -0.4434081669        1.3121206327
 H         -5.9193955281       -0.0019807920       -0.2775577348
 H         -5.7196060711        1.1249522111        0.9296764030
 H         -3.9765041548       -1.2709632739        0.5237809924
 H         -3.7628423153       -0.0795380808        1.7905680565
 H         -3.4252019344        1.6957261789        0.0360367137
 H         -3.5931369766        0.4921006421       -1.2092313253
 H         -1.3475864175        1.9732346226       -1.4960036156
 H          1.0948060591        1.6178876882       -1.4826417429
 H          0.6202830962       -1.6075498298        1.2259607179
 H         -1.8146783931       -1.2682460658        1.2248378236
  21
        -29.28826588
 N         -4.7242481605       -0.7578108325        1.0619233829
 C         -4.1555119598        0.5545780626        0.6293013478
 C         -3.3207727956        0.4579829414       -0.6586238334
 C         -1.8369652738        0.3115730979       -0.4516095999
 C         -0.9519347970        0.9217092551       -1.3309944452
 C          0.4138337004        0.7797731005       -1.1767754494
 C          0.9086727256        0.0200121035       -0.1440314232
 Br         2.7664662668       -0.1729582820        0.0663551128
 C          0.0530218057       -0.6006277110        0.7338598043
 C         -1.3124048699       -0.4574988054        0.5772751897
 H         -5.3805247040       -1.1234255568        0.3566276079
 H         -5.2457820559       -0.6732770218        1.9476522379
 H         -3.9959526802       -1.4756153413        1.1983308126
 H         -3.5490954619        0.9852000455        1.4345703209
 H         -4.9895546636        1.2555181747        0.4911836579
 H         -3.4935374398        1.3468939863       -1.2760627468
 H         -3.6787397007       -0.3830840946       -1.2602338522
 H         -1.3375205698        1.5113166035       -2.1458911427
 H          1.0991453320        1.2571768909       -1.8601216854
 H          0.4581513445       -1.1962433173        1.5371829956
 H         -1.9767110639       -0.9462695782        1.2665497813
