21
 energy: -29.414112132924 gnorm: 0.000209514214 xtb: 6.5.1 (fef0646)
N            2.90620490107101        0.14376358336712       -1.00314832990254
C            2.55840822312904        0.55196246002899        0.37954685746848
C            3.07999022274328       -0.47878741247422        1.37966556880730
C            4.58522456186982       -0.50992334416515        1.42019890304943
C            5.29006773201823        0.54262714785342        1.99584323406134
C            6.67219175597758        0.53318084263746        2.03943110611163
C            7.35468834489058       -0.54458624562751        1.50059091187342
Br           9.30159894648049       -0.57325735324378        1.56835113754598
C            6.67958751701643       -1.60305439705419        0.92035351783539
C            5.29528813829909       -1.57579608074342        0.88011249552478
H            2.61748917580979        0.85947345636848       -1.67939194425620
H            2.44297190568133       -0.74139950803770       -1.24091801990449
H            3.92118066947537        0.00611337498922       -1.07923966981755
H            1.47576626309219        0.63290522877255        0.46681973855242
H            3.00288464727659        1.52475780868199        0.58645552340487
H            2.69775022061268       -1.46873693796191        1.13376839581942
H            2.70706964516469       -0.21609568264807        2.36910699444054
H            4.76116688025317        1.37567403613970        2.43182822087534
H            7.21651039097757        1.34616837901376        2.49239026336633
H            7.22812575034238       -2.43584757216394        0.51072423264564
H            4.77609410781889       -2.41352178373260        0.44104086249881
