  18
        -29.26698788
 N         -2.5707031555       -2.2152840538       -0.4192812974
 C         -1.3869225123       -2.0904657811        0.4092343791
 C         -0.3085009608       -1.2240395005       -0.2267030535
 C          0.8964417415       -0.9947543702        0.6756432359
 C          1.8883267234       -0.0678799566        0.0345172551
 O          3.1243958057       -0.5555750469       -0.2067126525
 O          1.5528152978        1.0597563622       -0.2476345921
 Cl        -1.3718400650        2.4442378893        0.0605692486
 H         -2.3412861142       -2.6222094732       -1.3182523277
 H         -0.1477018623        1.9329827004       -0.0662791760
 H         -2.9746278973       -1.3042125958       -0.5986860803
 H         -0.9947469668       -3.0908986879        0.6279292332
 H         -1.6817848022       -1.6749898176        1.3814678644
 H         -0.7394213168       -0.2566469185       -0.5047552184
 H          0.0189494112       -1.6694790141       -1.1720593830
 H          1.3904862729       -1.9423107364        0.9090063763
 H          0.5804396172       -0.5657849585        1.6312288190
 H          3.6415734921        0.1611837591       -0.6191886842
