  17
        -20.46619724
 N         -1.6823378514       -1.6168253738       -0.4596809504
 C         -2.5574402133       -0.8282462295        0.4515802497
 C         -2.7421344271        0.6261225537        0.0197854332
 C         -1.5348174127        1.5493253127        0.2677773917
 C         -0.3448558842        1.3397490569       -0.6593629588
 I          1.0250439974       -0.0871336238        0.0551917633
 H         -0.7005121794       -1.2259953015       -0.4814719191
 H         -2.0470882743       -1.6115923063       -1.4244944974
 H         -1.6151436355       -2.6034086415       -0.1633393993
 H         -2.1558667897       -0.8661124741        1.4713168360
 H         -3.5337710291       -1.3291733006        0.5040225607
 H         -3.6161693688        1.0400849309        0.5413447747
 H         -3.0080992925        0.6549266104       -1.0428312903
 H         -1.2059246892        1.4529250339        1.3110313274
 H         -1.8708094169        2.5939472142        0.1750375384
 H          0.2785740506        2.2351344776       -0.7299369513
 H         -0.6549119809        1.0791190390       -1.6724449607
