  17
        -20.58091312
 N         -4.3353161787       -0.9703445982       -0.1768037883
 C         -3.4885297422        0.1218373180        0.3925224909
 C         -2.1256973389        0.2287287294       -0.2855838832
 C         -1.2477930385        1.3497792818        0.2895201763
 C          0.1108794775        1.4611806098       -0.3799826661
 I          1.3324522331       -0.2266523859        0.0231846070
 H         -4.5032367027       -0.8134659106       -1.1743563546
 H         -5.2426857372       -1.0194157328        0.2949550670
 H         -3.8725285981       -1.8774250094       -0.0721368815
 H         -3.3558268987       -0.0472288138        1.4674984760
 H         -4.0224203569        1.0752666011        0.3050276982
 H         -2.2651975940        0.3876067902       -1.3602361652
 H         -1.6036486089       -0.7305439642       -0.2024190980
 H         -1.1128670730        1.1925388258        1.3681582736
 H         -1.7841174890        2.3049165450        0.2015378218
 H          0.6739382611        2.3261059117       -0.0227740279
 H          0.0196741904        1.5487479743       -1.4637407578
