17
 energy: -20.582228235155 gnorm: 0.000973762465 xtb: 6.5.1 (fef0646)
N            0.93526985429947        0.08737376098243       -0.07229571060631
C            2.41734800901400        0.07286217291219       -0.06677951013593
C            2.94034419066087       -1.24553295862587        0.49637174289132
C            4.47149490708453       -1.25335235977158        0.49922635558425
C            4.98946737085601       -2.56413426621596        1.06256373862678
I            7.18613987654159       -2.63896282847137        1.09059704776508
H            0.58266196220350        0.97520624682593       -0.44894557349301
H            0.57408854568447       -0.03001033297218        0.88206416049985
H            0.57326247467655       -0.68051630469573       -0.65049097840347
H            2.78138396589312        0.90130282554480        0.54070939782129
H            2.78068412563551        0.20676880986142       -1.08561524195336
H            2.58851465879823       -2.08218943800113       -0.10812970700700
H            2.58897813123068       -1.38671212190395        1.51905533933093
H            4.84774056295323       -0.42554129787346        1.10281291893274
H            4.84719750151739       -1.12173391800519       -0.51700603292152
H            4.67551696387042       -3.41405752814637        0.46230319086896
H            4.67874689908041       -2.71173046144397        2.09360886219943
