  22
        -30.69770822
 N         -1.3582794258       -0.4228910795       -0.7904826731
 C         -1.0078301500       -1.1315435504        0.4299129934
 C          0.3890637503       -1.7481397193        0.3815715331
 C          1.4629190371       -0.7185537259        0.1917524802
 C          1.9024578403        0.0443643486        1.2635013362
 C          2.8592672107        1.0234199819        1.0862868391
 C          3.3848355124        1.2563674478       -0.1682096129
 C          2.9508974854        0.5096432176       -1.2443473819
 C          1.9947159734       -0.4698214629       -1.0651842445
 Cl        -4.3802585126        0.7130486986        0.0261821787
 H         -0.6609099829        0.2906670907       -0.9726766464
 H         -3.1664205561        0.2592485563       -0.3074343762
 H         -1.3042856123       -1.0616032094       -1.5765833145
 H         -1.7669999658       -1.8993262410        0.6249733656
 H         -1.0777674174       -0.4319138891        1.2725158863
 H          0.4405569954       -2.4781317559       -0.4332580920
 H          0.5920565972       -2.3148653744        1.2974534420
 H          1.4847902477       -0.1335007174        2.2403274177
 H          3.1941873148        1.6078692562        1.9280816230
 H          4.1316140684        2.0214454193       -0.3074925217
 H          3.3575705057        0.6922201402       -2.2260342958
 H          1.6503949563       -1.0482582775       -1.9061970830
  22
        -30.69662219
 N         -2.1714213989       -1.1184660912       -0.9386444667
 C         -0.9735386697       -0.4893041459       -0.4027139377
 C          0.3088159774       -0.9536797823       -1.0862187031
 C          1.5362837787       -0.2998830334       -0.5227981151
 C          1.9927318842        0.9059733591       -1.0346145983
 C          3.1031178409        1.5245215749       -0.4960702741
 C          3.7679887559        0.9472863809        0.5665681465
 C          3.3184629011       -0.2472049867        1.0912514123
 C          2.2078046902       -0.8645244222        0.5515980163
 Cl        -4.4836238250        0.3618914700        0.9491909407
 H         -2.2302099924       -0.9361610933       -1.9346205832
 H         -3.5590375564       -0.2361131556        0.1887962292
 H         -2.0932359994       -2.1263626438       -0.8501721694
 H         -0.9163958547       -0.6859564855        0.6745791508
 H         -1.0711009262        0.6003516083       -0.4891548116
 H          0.2487882559       -0.7536864773       -2.1614079676
 H          0.4014664196       -2.0414103091       -0.9999792811
 H          1.4677307595        1.3588706901       -1.8589627644
 H          3.4496850752        2.4601265755       -0.9046626862
 H          4.6351016365        1.4300701889        0.9878195221
 H          3.8334937385       -0.6977588122        1.9244264831
 H          1.8506599051       -1.7930373097        0.9648456254
  22
        -30.69655676
 N         -1.2646796380       -1.5609875360        1.0947538265
 C         -0.9531260144       -2.1246423356       -0.2123242656
 C         -0.4356419694       -1.0754193972       -1.1965712300
 C          0.7588084527       -0.3320861555       -0.6779315632
 C          0.6043693377        0.8831905955       -0.0271640037
 C          1.6966927105        1.5537670692        0.4830847007
 C          2.9597312968        1.0130956396        0.3539600596
 C          3.1265589093       -0.1997200889       -0.2830227480
 C          2.0320731465       -0.8691866301       -0.7927993453
 Cl        -2.9154711720        1.2324184832        0.3707024139
 H         -1.6266117497       -2.2752167785        1.7186527721
 H         -2.2794344436        0.0960370052        0.6780372620
 H         -0.4105774474       -1.2195776587        1.5236399940
 H         -1.8534917683       -2.6045458038       -0.6159026025
 H         -0.2096867119       -2.9255810779       -0.1021236489
 H         -1.2315324008       -0.3569324639       -1.4199688381
 H         -0.1844313190       -1.5388255012       -2.1575297518
 H         -0.3844664130        1.2942577389        0.0874124942
 H          1.5626209322        2.4982081544        0.9854930460
 H          3.8143002160        1.5359975002        0.7523454911
 H          4.1121094547       -0.6256396005       -0.3814883064
 H          2.1587214303       -1.8194174610       -1.2841646015
  22
        -30.69595343
 N         -2.3534756945       -1.1349495186       -1.4112085074
 C         -1.0262767151       -0.5320530989       -1.3821041184
 C         -0.1999539500       -0.9919102453       -0.1843989476
 C          1.1264063187       -0.2971192431       -0.0923391050
 C          1.2398782833        0.9172072827        0.5684936978
 C          2.4514595907        1.5759191095        0.6280828605
 C          3.5645956979        1.0303965860        0.0215736386
 C          3.4629313989       -0.1725848826       -0.6468533549
 C          2.2504216165       -0.8300467572       -0.7058931972
 Cl        -3.5238558238        0.3064510928        1.3559133362
 H         -2.8455307978       -0.8806242931       -2.2618378444
 H         -3.0669208617       -0.2739926799        0.2406077280
 H         -2.2691980918       -2.1457578732       -1.4245804772
 H         -1.1345354574        0.5586822442       -1.3507201877
 H         -0.4833851943       -0.7486075351       -2.3118508876
 H         -0.0463712732       -2.0752382439       -0.2327668846
 H         -0.7633247410       -0.8230779925        0.7391403408
 H          0.3675338850        1.3439350299        1.0345875637
 H          2.5274967671        2.5178104441        1.1471360710
 H          4.5112404980        1.5443610950        0.0676670991
 H          4.3304120995       -0.5986163651       -1.1247510391
 H          2.1671337761       -1.7655511616       -1.2334472047
  22
        -30.69590134
 N         -2.2092362401       -1.9669082299       -0.3757739684
 C         -0.8345894807       -1.6104488813       -0.0453787512
 C         -0.3066560043       -0.4605102370       -0.8984883261
 C          1.0610742753       -0.0075334205       -0.4808983139
 C          1.2117491892        0.9501222777        0.5112581611
 C          2.4684188729        1.3472232829        0.9216160690
 C          3.5913376516        0.7861890511        0.3481609745
 C          3.4549884529       -0.1743496081       -0.6332327737
 C          2.1974462599       -0.5707319787       -1.0423822624
 Cl        -3.5870541617        0.8829362547        0.6655196033
 H         -2.2723739474       -2.2099105480       -1.3584933669
 H         -3.0502129177       -0.2691422609        0.2481578464
 H         -2.5011766085       -2.7916244218        0.1391753044
 H         -0.1744038284       -2.4810479588       -0.1471844439
 H         -0.7885928855       -1.3271862188        1.0138036704
 H         -1.0004065399        0.3852622169       -0.8472290051
 H         -0.2919303293       -0.7557717707       -1.9528639837
 H          0.3331653429        1.3805623011        0.9619822262
 H          2.5723842438        2.0946549680        1.6916181030
 H          4.5732285709        1.0959295206        0.6681033471
 H          4.3309304053       -0.6170160741       -1.0795502092
 H          2.0886447474       -1.3260520813       -1.8027023270
  22
        -30.69585145
 N         -2.3702332626       -1.2089484292       -1.3739902753
 C         -1.0391723180       -0.6136502908       -1.3768771889
 C         -0.1994157837       -1.0521115528       -0.1802910468
 C          1.1107931050       -0.3269288790       -0.0929717311
 C          1.1955702321        0.8924778700        0.5627867241
 C          2.3910559573        1.5801117206        0.6191596706
 C          3.5165809671        1.0586489017        0.0143291154
 C          3.4432643354       -0.1491446455       -0.6491982079
 C          2.2467568570       -0.8356099343       -0.7050146272
 Cl        -3.4421148585        0.3968384326        1.3437655752
 H         -2.8703055503       -0.9778548905       -2.2265653161
 H         -3.0297032096       -0.2514292440        0.2486799620
 H         -2.2923071871       -2.2201305096       -1.3567704586
 H         -1.1422945958        0.4780090962       -1.3664111701
 H         -0.5101003505       -0.8514673214       -2.3093786139
 H         -0.0223818217       -2.1320407997       -0.2249584226
 H         -0.7640046264       -0.8922718187        0.7441029053
 H          0.3132217518        1.2999792795        1.0272818216
 H          2.4447418191        2.5256519609        1.1343517756
 H          4.4507552666        1.5951416645        0.0579616599
 H          4.3204505925       -0.5562951504       -1.1258365030
 H          2.1854920785       -1.7749517484       -1.2287449667
  22
        -30.69572995
 N         -2.1328599572       -1.3702105348        0.6689831034
 C         -1.3495085256       -2.2394468421       -0.1993402395
 C          0.1261497045       -2.2928225257        0.1941421709
 C          0.7955614062       -0.9529660996        0.1257769364
 C          1.2398096182       -0.4494368111       -1.0878603350
 C          1.8347179776        0.7940963625       -1.1594223288
 C          1.9883727277        1.5529253279       -0.0171443731
 C          1.5429113776        1.0673534107        1.1951857699
 C          0.9475930727       -0.1762147799        1.2648406506
 Cl        -1.5370231600        1.7301327345       -0.4177681750
 H         -1.9732693132       -1.6266680733        1.6372864958
 H         -1.7634414398        0.4869913051        0.0211207174
 H         -3.1270492348       -1.5018949831        0.5038831644
 H         -1.4397005992       -1.8715022955       -1.2281928606
 H         -1.7764923678       -3.2521504267       -0.2031162667
 H          0.6695916782       -2.9974055820       -0.4463379827
 H          0.2198704870       -2.6897170393        1.2104709520
 H          1.1118866627       -1.0401915222       -1.9793959274
 H          2.1745782528        1.1747334598       -2.1091028700
 H          2.4491293656        2.5260179717       -0.0729677574
 H          1.6545992500        1.6617699034        2.0876654274
 H          0.5905955653       -0.5519579326        2.2090793072
  22
        -30.69557985
 N         -2.0369475572       -1.5318773406       -0.6118723961
 C         -1.4077486396       -2.1307339208        0.5582149382
 C          0.1080845344       -2.2594210025        0.4132185753
 C          0.7892761050       -0.9375213696        0.2219726447
 C          1.1206836092       -0.1505476463        1.3150774974
 C          1.7256239566        1.0779827303        1.1411493601
 C          2.0013767229        1.5383207349       -0.1301785897
 C          1.6681231232        0.7694774853       -1.2264105578
 C          1.0634117363       -0.4589724930       -1.0506261956
 Cl        -1.5581037033        1.7474708263       -0.1955993603
 H         -1.7393918514       -2.0260815802       -1.4461283543
 H         -1.7375671434        0.4328164792       -0.3648423224
 H         -3.0469354394       -1.6373058026       -0.5690556565
 H         -1.8523326311       -3.1137711260        0.7631733088
 H         -1.6393834941       -1.5080188053        1.4314148129
 H          0.3409692968       -2.9088841522       -0.4374689234
 H          0.5366121223       -2.7600506724        1.2891569542
 H          0.8973772376       -0.5081637452        2.3062493535
 H          1.9784126764        1.6801579569        1.9989142426
 H          2.4699788844        2.4995996879       -0.2668764248
 H          1.8744599550        1.1308299444       -2.2209708323
 H          0.7933168301       -1.0553969695       -1.9059110865
  22
        -30.69344387
 N         -2.5433607374       -1.5242315454       -1.0705736680
 C         -1.1690519858       -1.1155235620       -1.3391251942
 C         -0.2309744286       -1.4342412888       -0.1714116631
 C          0.9525015469       -0.5150169527       -0.1095579867
 C          0.8156073366        0.7464904562        0.4502035868
 C          1.8841350597        1.6178335653        0.4938261071
 C          3.1036319557        1.2386361775       -0.0295245430
 C          3.2500834220       -0.0102001585       -0.5989535594
 C          2.1795891997       -0.8811061019       -0.6415157283
 Cl        -2.6789347780        0.8931090635        1.2521847602
 H         -3.1271656978       -1.3958891808       -1.8908258411
 H         -2.6646760463       -0.0735754668        0.3285263425
 H         -2.5696129454       -2.5149423128       -0.8555807071
 H         -1.1647169365       -0.0333050818       -1.5185655753
 H         -0.7937581772       -1.5660784252       -2.2678992298
 H          0.1009603907       -2.4771260838       -0.2195948715
 H         -0.7849138497       -1.3566851259        0.7701479555
 H         -0.1443088805        1.0388712316        0.8430031633
 H          1.7653677314        2.5947602929        0.9340853421
 H          3.9399241522        1.9182858687        0.0035404355
 H          4.2009114998       -0.3055598514       -1.0125819796
 H          2.2891754923       -1.8536818069       -1.0914230968
  22
        -30.69332499
 N         -2.3894042250       -2.0426783147        0.2363279860
 C         -0.9443418044       -1.8782327962        0.1233816797
 C         -0.3964832581       -0.8610147894        1.1290793566
 C          0.8546427479       -0.1862933801        0.6503730590
 C          2.1080791187       -0.6059681780        1.0698498111
 C          3.2486896785        0.0117363832        0.5971181584
 C          3.1489596157        1.0517585904       -0.3050704624
 C          1.9072884045        1.4715120497       -0.7369931107
 C          0.7686440012        0.8533229051       -0.2633112938
 Cl        -2.7239315524        1.0786158048       -0.9476057188
 H         -2.6294682268       -2.3173416465        1.1824647815
 H         -2.6289377152       -0.1711978907       -0.4818126463
 H         -2.7183285987       -2.7888174319       -0.3680820617
 H         -0.7195844234       -1.5348955408       -0.8939900756
 H         -0.4245794058       -2.8403220704        0.2269766972
 H         -0.2231925204       -1.3368568247        2.1005077467
 H         -1.1560527515       -0.0955239553        1.3202038100
 H          2.1833853559       -1.4219964793        1.7688116499
 H          4.2184285900       -0.3196354894        0.9320443397
 H          4.0400509989        1.5336453773       -0.6740580141
 H          1.8265168588        2.2799614798       -1.4456650652
 H         -0.2047684000        1.1657156400       -0.6043440410
  22
        -30.69257403
 N         -1.8763375768       -0.2204847364       -1.0339036989
 C         -1.0286474411       -1.0280711333       -0.1682480611
 C          0.3149445496       -1.4158598257       -0.8084089052
 C          1.4654156906       -0.5234178872       -0.4298169143
 C          1.3450664263        0.8584531053       -0.4300652352
 C          2.4152458402        1.6649207712       -0.0994573459
 C          3.6289518492        1.0997082697        0.2329230040
 C          3.7681863926       -0.2726919942        0.2317977058
 C          2.6954249348       -1.0762314694       -0.0990557400
 Cl        -4.3821276576        0.4173997857        1.0673580581
 H         -1.3750826999        0.5998645610       -1.3542373072
 H         -3.3789361303        0.1634582968        0.2191326078
 H         -2.0982360205       -0.7446501085       -1.8735279312
 H         -1.5966001516       -1.9227749055        0.1194242677
 H         -0.8542813904       -0.4911364271        0.7729718473
 H          0.2120805739       -1.4222648129       -1.8986942437
 H          0.5721654554       -2.4469754713       -0.5387818441
 H          0.4022615726        1.3072833776       -0.6852307935
 H          2.3026085799        2.7371943019       -0.1006632728
 H          4.4658499055        1.7283214994        0.4915130835
 H          4.7158794767       -0.7182058463        0.4884064779
 H          2.8086575371       -2.1474951470       -0.1032702768
  22
        -30.69010114
 N         -2.1788048243       -1.4480386376        0.5110765216
 C         -1.2637959140       -2.3711178459       -0.1362333801
 C          0.1624913884       -2.3033348959        0.4094496817
 C          0.8134953902       -0.9659774426        0.2141781118
 C          1.0292936939       -0.1152375393        1.2889630243
 C          1.6298581679        1.1142659446        1.1053008891
 C          2.0168771020        1.5124559911       -0.1580525162
 C          1.8042311066        0.6777040889       -1.2360025385
 C          1.2067294288       -0.5529891318       -1.0499503816
 Cl        -1.6934565031        1.8214396269       -0.3924729852
 H         -2.1161592256       -1.5294245435        1.5193235689
 H         -0.4266499512        1.4641136909       -0.2912388418
 H         -1.9640558167       -0.4838085174        0.2736461250
 H         -1.2665564461       -2.1747261245       -1.2149040464
 H         -1.6669369211       -3.3866363897       -0.0264206910
 H          0.7874500968       -3.0721174097       -0.0599838416
 H          0.1545790674       -2.5470573797        1.4770150639
 H          0.7247412124       -0.4247176406        2.2747330900
 H          1.7987198382        1.7628039213        1.9501412021
 H          2.4918588815        2.4701168206       -0.3013203720
 H          2.1104757583        0.9838921140       -2.2236239224
 H          1.0437544494       -1.2075320997       -1.8899178247
  22
        -30.69001066
 N          0.0487772786       -2.9665028824       -2.0737338865
 C         -0.5631759154       -3.0350020301       -0.7595559382
 C         -1.1222364237       -1.6926339815       -0.2910814969
 C         -0.0647914407       -0.6336034088       -0.1934583624
 C          0.1011638843        0.3003747657       -1.2057376097
 C          1.0986647135        1.2513511616       -1.1299638732
 C          1.9470658999        1.2772062697       -0.0420916488
 C          1.7979885027        0.3487637335        0.9675708522
 C          0.8001080180       -0.6018275837        0.8900845199
 Cl        -1.4140055873        2.4112490637        1.5728785985
 H         -0.6263095935       -2.6500446794       -2.7604130248
 H         -0.5782712794        1.6051648692        0.9471887418
 H          0.7987827002       -2.2857516047       -2.0717534205
 H          0.1850932300       -3.3985188412       -0.0452242210
 H         -1.3486297132       -3.8020632335       -0.7744966275
 H         -1.6155838911       -1.7987585677        0.6820934244
 H         -1.9038801563       -1.3593283873       -0.9817610078
 H         -0.5553229286        0.2735107500       -2.0595468997
 H          1.2177069211        1.9716366247       -1.9235284394
 H          2.7283201349        2.0181152745        0.0162708214
 H          2.4644847532        0.3622776854        1.8151163531
 H          0.6882599430       -1.3341019441        1.6724872113
  22
        -30.68979150
 N         -2.3730944513       -2.9940090182        0.1107599960
 C         -1.5551234685       -1.7948573010        0.0596290239
 C         -0.0588535682       -2.0825839607        0.1412190043
 C          0.7758270099       -0.8367928038        0.0877285718
 C          1.1020806293       -0.1543080184        1.2504375896
 C          1.8351083229        1.0141328290        1.1990313421
 C          2.2465977895        1.5183338840       -0.0177351716
 C          1.9225625033        0.8529374677       -1.1822214676
 C          1.1894676035       -0.3155057756       -1.1292026049
 Cl        -1.6119593646        2.0664267189       -0.2016645560
 H         -2.1330563132       -3.6168036898       -0.6515753815
 H         -0.4752485253        1.4031750737       -0.1149807133
 H         -2.1995935525       -3.5046876351        0.9690706005
 H         -1.8541153771       -1.1232838118        0.8732418889
 H         -1.7832592286       -1.2451092906       -0.8622862936
 H          0.2338583200       -2.7541478073       -0.6729545490
 H          0.1626540710       -2.6320570151        1.0621528460
 H          0.7750077259       -0.5465009215        2.1990753833
 H          2.0869038540        1.5326358760        2.1103356775
 H          2.8212021065        2.4298730746       -0.0583493324
 H          2.2427482756        1.2452596577       -2.1342300235
 H          0.9304998053       -0.8334880696       -2.0377873665
  22
        -30.68953420
 N         -1.4784803687       -3.8103790141       -1.3720600698
 C         -0.4317302279       -2.8348426820       -1.1218432740
 C         -0.9499067161       -1.5410008997       -0.5015067553
 C          0.1399236169       -0.5417629216       -0.2457627994
 C          0.5068126377        0.3697264405       -1.2248505301
 C          1.5259207486        1.2730290116       -0.9996915027
 C          2.1961314058        1.2715181257        0.2065058817
 C          1.8483806809        0.3625723942        1.1845999275
 C          0.8289921882       -0.5401946439        0.9579472029
 Cl        -1.3453683594        2.5602038105        1.2663809105
 H         -1.9529620745       -4.0452673661       -0.5082720113
 H         -0.4623411631        1.7089771807        0.7811521983
 H         -2.1808385414       -3.4258576710       -1.9936918890
 H          0.0882341105       -2.6185360474       -2.0626412658
 H          0.3291409562       -3.2851215668       -0.4718650675
 H         -1.4703418046       -1.7624412194        0.4364564655
 H         -1.7085663653       -1.0956023664       -1.1536513485
 H         -0.0110404606        0.3626361467       -2.1695691786
 H          1.8016251480        1.9768673900       -1.7686454961
 H          2.9943491099        1.9749269843        0.3818672211
 H          2.3763612804        0.3541051896        2.1247574797
 H          0.5628582731       -1.2575126742        1.7165785082
  22
        -30.68940848
 N          0.1194653241       -3.3447308779        0.8324260354
 C         -0.7941679285       -2.8628712390       -0.1872780105
 C         -1.1983621915       -1.4036173823        0.0153715205
 C         -0.0233623409       -0.4723416428       -0.0212136069
 C          0.5545772030       -0.0116138789        1.1520816984
 C          1.6567957602        0.8179169822        1.1158760060
 C          2.1985950021        1.1936705956       -0.0960348928
 C          1.6376174908        0.7360765165       -1.2703784312
 C          0.5356773977       -0.0938476605       -1.2318468054
 Cl        -1.5928485918        2.2715783067       -0.1764520800
 H          0.9546630337       -2.7719647739        0.8461197588
 H         -2.5222153434        3.2076707693       -0.2155959636
 H         -0.3022823014       -3.2595864013        1.7502614036
 H         -1.6772571833       -3.5135913738       -0.2075390665
 H         -0.3187617149       -2.9866267935       -1.1685122332
 H         -1.7146344134       -1.2951631154        0.9751791181
 H         -1.9246439206       -1.0952057370       -0.7453279970
 H          0.1333503527       -0.3087338847        2.0978985626
 H          2.0944182995        1.1726515421        2.0351531691
 H          3.0588685989        1.8429203744       -0.1252758695
 H          2.0600590029        1.0267058392       -2.2188018505
 H          0.0981720489       -0.4554573425       -2.1474386311
  22
        -30.68937471
 N          0.1183160435       -3.3411977624        0.8240740212
 C         -0.8052525637       -2.8460310360       -0.1801960058
 C         -1.1970894954       -1.3856455187        0.0379348654
 C         -0.0164475034       -0.4619626683       -0.0075734356
 C          0.5879778029       -0.0239867109        1.1610953255
 C          1.6958835266        0.7975187106        1.1159219675
 C          2.2166301506        1.1881688432       -0.1005136569
 C          1.6289396930        0.7534454726       -1.2704833664
 C          0.5216053342       -0.0687848536       -1.2230131328
 Cl        -1.6151331362        2.2518906932       -0.1940491438
 H         -0.2901454923       -3.2583487517        1.7479970531
 H         -2.5515651719        3.1813825761       -0.2209325148
 H          0.9581943640       -2.7749653954        0.8296528025
 H         -1.6928446585       -3.4907849442       -0.1933924045
 H         -0.3435379210       -2.9658615571       -1.1684209741
 H         -1.7000324937       -1.2804072925        1.0051494960
 H         -1.9312051777       -1.0671640675       -0.7110107596
 H          0.1832940178       -0.3329609127        2.1103317521
 H          2.1546926244        1.1339279808        2.0317514637
 H          3.0814572821        1.8309884718       -0.1366709240
 H          2.0347606299        1.0558854875       -2.2224617091
 H          0.0633767804       -0.4127540578       -2.1352623826
  22
        -30.68918279
 N         -0.0796742056       -3.1981149054        1.0757232887
 C         -0.7691593643       -2.8440719667       -0.1514555751
 C         -1.1574109916       -1.3679121746       -0.2134009387
 C          0.0329873218       -0.4577661293       -0.1516001891
 C          0.4259201670        0.1163367049        1.0477524702
 C          1.5406786224        0.9272688006        1.1086791739
 C          2.2807468994        1.1704787927       -0.0300160137
 C          1.9051797512        0.5988760288       -1.2281690211
 C          0.7901171884       -0.2123727424       -1.2867484540
 Cl        -1.6773156703        2.1971393017       -0.1374637562
 H          0.7591746705       -2.6388090020        1.1764702661
 H         -2.6380100759        3.0920729027       -0.2715302583
 H         -0.6630819893       -2.9879405034        1.8770889110
 H         -1.6531604696       -3.4850863742       -0.2579897756
 H         -0.1221390092       -3.0964973457       -1.0010324156
 H         -1.8353076571       -1.1308368289        0.6135179085
 H         -1.7241776550       -1.1562503249       -1.1273275380
 H         -0.1510327710       -0.0760771031        1.9367853729
 H          1.8329469567        1.3714662116        2.0465931378
 H          3.1513949508        1.8047165760        0.0166527786
 H          2.4835234497        0.7846986382       -2.1189164647
 H          0.4979491378       -0.6642434275       -2.2199812564
  22
        -30.68913787
 N         -2.5556942679       -2.6539021376       -0.7679774725
 C         -1.6678019091       -1.5608390178       -0.4119439148
 C         -0.2026559948       -1.8457439191       -0.7279568665
 C          0.7032661209       -0.7091232838       -0.3547803622
 C          0.9625290910        0.3124221603       -1.2557299602
 C          1.7659131733        1.3769030732       -0.9014269838
 C          2.3159236987        1.4362886267        0.3623848113
 C          2.0583965899        0.4309653783        1.2712720305
 C          1.2546382214       -0.6328888256        0.9151076225
 Cl        -1.3680459556        1.6554262383        0.7482872096
 H         -2.4808873279       -2.8577504571       -1.7575879618
 H         -2.4783462277        2.2564805188        1.1315747975
 H         -2.2876704188       -3.4996104488       -0.2775961521
 H         -1.7849349000       -1.3371734328        0.6550863080
 H         -1.9937864417       -0.6507430633       -0.9311772097
 H         -0.0904305029       -2.0679426957       -1.7945645319
 H          0.1180017038       -2.7548694157       -0.2084918162
 H          0.5233612081        0.2696677966       -2.2383853947
 H          1.9601045886        2.1647577411       -1.6113480333
 H          2.9418214944        2.2689225766        0.6406296331
 H          2.4817604390        0.4782252363        2.2617114350
 H          1.0437556390       -1.4136427834        1.6267467145
  22
        -30.68910399
 N         -2.1982083761       -1.4503830277       -0.4002797942
 C         -1.2964331955       -2.3738866092        0.2632455751
 C          0.1246322350       -2.3358477220       -0.2965088280
 C          0.7714057722       -0.9903769852       -0.1545746158
 C          0.8444739450       -0.1199724029       -1.2317842982
 C          1.4222088248        1.1251734609       -1.0928974610
 C          1.9292832077        1.5189146070        0.1279363360
 C          1.8547896799        0.6664061264        1.2098521356
 C          1.2774169489       -0.5792278415        1.0690092333
 Cl        -1.4478230317        1.8275740119        0.2113090710
 H         -1.9112841193       -0.4890147206       -0.2382683560
 H         -2.6035441391        2.4112209909        0.4698846443
 H         -2.1785067551       -1.5970166961       -1.4029261574
 H         -1.7147029775       -3.3852840204        0.1861782330
 H         -1.2848916626       -2.1452534262        1.3364190685
 H          0.1084427952       -2.6174283111       -1.3548672412
 H          0.7515943730       -3.0875931344        0.1966705725
 H          0.4415739181       -0.4249503566       -2.1830518171
 H          1.4732241258        1.7925163480       -1.9381790231
 H          2.3780478784        2.4931032279        0.2376134558
 H          2.2449635342        0.9742428779        2.1666322104
 H          1.2134088899       -1.2448286238        1.9136002493
  22
        -30.68880536
 N         -1.7704531866       -3.6979592496        0.0687007272
 C         -0.6211093459       -2.8094892029        0.0681987624
 C         -1.0012042538       -1.3333432011        0.0067425618
 C          0.1927283926       -0.4244052096        0.0076082092
 C          0.7333539861        0.0303870684        1.2005829646
 C          1.8446815908        0.8485156641        1.2035027878
 C          2.4339869621        1.2169670586        0.0116156905
 C          1.9119344755        0.7626345360       -1.1818688272
 C          0.8003908485       -0.0554215905       -1.1826218207
 Cl        -1.3857771131        2.3052340572       -0.0773025649
 H         -2.3268147534       -3.5516560809       -0.7654167184
 H         -2.3148416794        3.2411786813       -0.1260453200
 H         -2.3732855844       -3.4945470261        0.8578323739
 H          0.0292886809       -3.0653608391       -0.7766590196
 H         -0.0168699297       -3.0050211123        0.9630505840
 H         -1.6516216745       -1.0827262264        0.8516109369
 H         -1.6045079952       -1.1429070981       -0.8871100419
 H          0.2739980110       -0.2615780156        2.1301194153
 H          2.2523519872        1.1999042797        2.1377045639
 H          3.3015703716        1.8570785118        0.0130185765
 H          2.3722726942        1.0466139816       -2.1145435472
 H          0.3933823628       -0.4144516022       -2.1131658762
  22
        -30.68833438
 N         -1.9798517519       -1.2184954630        1.0414520155
 C         -1.3790899854       -2.0917352948        0.0467542083
 C          0.1261266063       -2.2502375402        0.2518156586
 C          0.8549252325       -0.9456682786        0.1262194940
 C          1.0169070648       -0.1180298748        1.2271210812
 C          1.6499028274        1.1023718974        1.1043862935
 C          2.1233403051        1.5141411380       -0.1245752849
 C          1.9602040496        0.7045285339       -1.2299031945
 C          1.3268673452       -0.5157245354       -1.1052391446
 Cl        -1.8315123352        1.6035534637       -0.5769335262
 H         -2.9796298370       -1.1219808342        0.9036546027
 H         -0.7259131141        0.9621194144       -0.2490795585
 H         -1.8364842508       -1.5854088917        1.9753615857
 H         -1.5643690153       -1.6669691458       -0.9470224423
 H         -1.8760465126       -3.0716228643        0.0557509837
 H          0.5410897265       -2.9680971842       -0.4652353233
 H          0.3196774786       -2.6763703035        1.2417652938
 H          0.6396894155       -0.4378936538        2.1842684370
 H          1.7730688453        1.7346366088        1.9690970070
 H          2.6175724453        2.4674901875       -0.2213470401
 H          2.3256647577        1.0259210963       -2.1920258042
 H          1.1914405432       -1.1456315512       -1.9687439992
