  20
        -20.44226223
 N         -2.4931487255        0.8384439119       -0.2158535306
 C         -1.9857242001       -0.4395560171        0.3673978144
 C         -0.6234805242       -0.8583342619       -0.1814125585
 C          0.5163815200        0.0777740686        0.2252959493
 C          1.8857606494       -0.3836539582       -0.2821931451
 C          3.0169054923        0.5524121133        0.1220120504
 H         -1.8757102265        1.6232770650        0.0156152361
 H         -3.4280435018        1.0642265141        0.1395733827
 H         -2.5499250471        0.7724154873       -1.2370385721
 H         -2.7240491432       -1.2280242262        0.1763847116
 H         -1.9308817034       -0.3430139366        1.4575280673
 H         -0.6744995664       -0.9173982974       -1.2735699965
 H         -0.3851369787       -1.8752583343        0.1521093849
 H          0.5434647624        0.1693483632        1.3166975999
 H          0.3170231052        1.0885274191       -0.1446428679
 H          1.8526817450       -0.4807202697       -1.3741277652
 H          2.0873727641       -1.3956179408        0.0894726807
 H          2.8560991896        1.5572276037       -0.2704099496
 H          3.9837395793        0.2061186162       -0.2471771336
 H          3.0904433847        0.6359921059        1.2069591877
  20
        -20.44223645
 N         -3.1038104256       -0.1059338672       -0.2484379068
 C         -1.8276769735        0.2371798354        0.4486488471
 C         -0.5924230465       -0.1549005706       -0.3544487046
 C          0.7218461105        0.1698046132        0.3606711834
 C          1.9615884641       -0.2221588766       -0.4478033699
 C          3.2661898967        0.0910831743        0.2722650396
 H         -3.1610676195       -1.1138722887       -0.4200508019
 H         -3.1602488871        0.3719270241       -1.1523905543
 H         -3.9184836978        0.1685955828        0.3085153689
 H         -1.8051891749       -0.2568118183        1.4266421807
 H         -1.8069253830        1.3125302610        0.6590484080
 H         -0.6155431658        0.3473230004       -1.3271859735
 H         -0.6310574531       -1.2251320645       -0.5825691515
 H          0.7445100359       -0.3356619028        1.3323724407
 H          0.7590650578        1.2400127021        0.5919218384
 H          1.9372959942        0.2894121270       -1.4175975547
 H          1.9141253223       -1.2915052918       -0.6866054384
 H          3.3285229233       -0.4395099967        1.2230639280
 H          3.3504963567        1.1565129218        0.4892068917
 H          4.1370498504       -0.1937034798       -0.3206225806
  20
        -20.44165543
 N         -2.2080388900        0.9338985166       -0.0825346228
 C         -1.6579773839       -0.3801363279       -0.5310764932
 C         -0.7202318913       -1.0244606286        0.4877803226
 C          0.5664295471       -0.2364145287        0.7555227899
 C          1.4936980463       -0.1253789667       -0.4581285528
 C          2.7973305207        0.5974432118       -0.1448759294
 H         -1.4620334458        1.6262155781        0.0416040875
 H         -2.6972062586        0.8349056529        0.8128662295
 H         -2.8724369851        1.3126588313       -0.7658362100
 H         -1.1432743661       -0.2490722439       -1.4887238155
 H         -2.4966541770       -1.0550451146       -0.7425211369
 H         -0.4540417357       -2.0354110266        0.1571589940
 H         -1.2671209381       -1.1633312577        1.4273827918
 H          1.1195414222       -0.7056624448        1.5781986584
 H          0.3197715190        0.7661024341        1.1191402481
 H          0.9741419629        0.3895676797       -1.2742355974
 H          1.7075973679       -1.1301729489       -0.8422098607
 H          3.3573406016        0.0805624631        0.6353677361
 H          2.6102637681        1.6122066414        0.2082319188
 H          3.4441851962        0.6683449382       -1.0210320285
  20
        -20.44157156
 N         -2.3769545559        0.9032603824       -0.0556066819
 C         -1.8962630256       -0.4854847671        0.2114292755
 C         -0.3965051213       -0.5644516683        0.4902466151
 C          0.4705190029       -0.2321708044       -0.7261171437
 C          1.9742031163       -0.4119571452       -0.4821621857
 C          2.5497547643        0.5637847233        0.5356725989
 H         -2.1491697682        1.5222547243        0.7288113629
 H         -3.3929498943        0.9252619698       -0.1913286257
 H         -1.9426271797        1.2904941343       -0.8995884463
 H         -2.1485668957       -1.1256292583       -0.6413939601
 H         -2.4566116346       -0.8914233575        1.0626191726
 H         -0.1375851435       -1.5681136890        0.8477344205
 H         -0.1505295251        0.1098224755        1.3164247098
 H          0.2793154154        0.7971520127       -1.0456892456
 H          0.1548808225       -0.8599990940       -1.5679262095
 H          2.5137764171       -0.3044806802       -1.4321323212
 H          2.1666029099       -1.4422947984       -0.1594720964
 H          2.1018637748        0.4276671500        1.5202220315
 H          2.3702342277        1.5969155755        0.2358490888
 H          3.6278241997        0.4392215485        0.6522183964
  20
        -20.44153937
 N         -2.9252229778        0.2885320947        0.2196426173
 C         -1.4859211454        0.4921507047       -0.1274833306
 C         -0.6766823521       -0.7987635826       -0.0633742592
 C          0.7841291657       -0.6407098960       -0.5026666907
 C          1.6218394902        0.2424275180        0.4266432284
 C          3.0819009929        0.3330138823        0.0028312445
 H         -3.0168773323       -0.0935785055        1.1653561762
 H         -3.3635277597       -0.3698668032       -0.4309447897
 H         -3.4471506451        1.1692024155        0.1797193252
 H         -1.0567127536        1.2399592790        0.5477824982
 H         -1.4147602061        0.9234846716       -1.1324036398
 H         -1.1707923116       -1.5540691290       -0.6849532937
 H         -0.7114985034       -1.1989776235        0.9552865701
 H          0.8176810445       -0.2339342712       -1.5193043108
 H          1.2572096243       -1.6274398436       -0.5728893655
 H          1.5537865337       -0.1440553143        1.4507561880
 H          1.1880864165        1.2481059309        0.4694815157
 H          3.6626988639        0.9659724681        0.6759399062
 H          3.1755173119        0.7485563224       -1.0011203381
 H          3.5511923215       -0.6514083259       -0.0084173364
  20
        -20.44137638
 N         -2.8388493858        0.6952029889        0.1373465592
 C         -1.7864669565       -0.2800633385       -0.2797192313
 C         -0.3974267155        0.0998670059        0.2220718077
 C          0.6889268147       -0.8930430790       -0.2004959097
 C          2.0836325015       -0.5532393301        0.3387907807
 C          2.6625823602        0.7356236449       -0.2294783749
 H         -2.8883779766        0.7569110354        1.1583404863
 H         -3.7622040166        0.4191616949       -0.2100064907
 H         -2.6286765540        1.6294778005       -0.2257956727
 H         -1.7768889646       -0.3573991079       -1.3728780943
 H         -2.0524004263       -1.2785134372        0.0855160566
 H         -0.4147235628        0.1819314035        1.3138454234
 H         -0.1477226051        1.1025906324       -0.1381919306
 H          0.7253762096       -0.9496950718       -1.2939245917
 H          0.3986910892       -1.8974111274        0.1302025999
 H          2.7696891702       -1.3832026506        0.1254294557
 H          2.0415669066       -0.4911304114        1.4328937470
 H          2.0572297926        1.6012313804        0.0401096873
 H          2.7117233750        0.6985374445       -1.3183269056
 H          3.6733074163        0.9225266488        0.1376897126
  20
        -20.44124946
 N         -2.6319660966        0.4334979249       -0.3570564304
 C         -1.7891257199       -0.3973972032        0.5545890567
 C         -0.3754836776       -0.6378694165        0.0277480441
 C          0.4855261334        0.6259969286       -0.0179844113
 C          1.9083533246        0.3894366030       -0.5405757766
 C          2.7654071609       -0.4702111774        0.3793767596
 H         -2.2499652729        1.3792146105       -0.4595622622
 H         -3.5881255595        0.5240415346        0.0016925898
 H         -2.6826748903        0.0104134602       -1.2891992954
 H         -2.2943376998       -1.3573630226        0.7177369266
 H         -1.7404129420        0.0821101684        1.5387297861
 H         -0.4316297167       -1.0764054795       -0.9739881742
 H          0.1221588911       -1.3926714754        0.6467657242
 H          0.5352918610        1.0690894160        0.9826860645
 H         -0.0123345218        1.3763390130       -0.6418163464
 H          2.4045712910        1.3561100769       -0.6970290491
 H          1.8553731438       -0.0688291982       -1.5355172238
 H          2.3593097907       -1.4764098179        0.4843636510
 H          2.8265884520       -0.0374381150        1.3785886248
 H          3.7852549571       -0.5726973615        0.0042070290
  20
        -20.44091223
 N         -2.3173289637        0.6573070804       -0.2704807117
 C         -1.3895885817        0.0510896191        0.7308500359
 C         -0.4605459619       -1.0048164674        0.1356488279
 C          0.5244789520       -0.4686259783       -0.9084350295
 C          1.5129857689        0.5780948024       -0.3801689462
 C          2.4478014880        0.0481285406        0.6990824769
 H         -2.8764613499       -0.0678737000       -0.7311373972
 H         -1.8019542161        1.1661400485       -0.9964716237
 H         -2.9623497119        1.3196213744        0.1732871818
 H         -1.9879678777       -0.3924047857        1.5364076025
 H         -0.8040943251        0.8438497800        1.2082221470
 H         -1.0728846269       -1.7956205132       -0.3130364810
 H          0.0974326187       -1.5014395748        0.9375341518
 H         -0.0377036698       -0.0526440331       -1.7518495513
 H          1.0935648754       -1.3039273475       -1.3343128463
 H          0.9631103476        1.4472771199       -0.0016473589
 H          2.1099544545        0.9673649829       -1.2154711480
 H          1.8993141782       -0.2641715753        1.5879963458
 H          3.1706384967        0.8023179206        1.0154853186
 H          3.0106362112       -0.8156688386        0.3431413444
  20
        -20.44073634
 N         -2.6263661235        0.7455117554       -0.0587023709
 C         -1.3710989385        0.0543191752       -0.4837480075
 C         -0.4926350375       -0.3475669925        0.6961105753
 C          0.7585331379       -1.1413088676        0.3008053300
 C          1.7582669511       -0.3706406011       -0.5700230840
 C          2.3610654673        0.8461591641        0.1193036933
 H         -3.1983565686        1.0097314601       -0.8663354886
 H         -2.4087700341        1.5956665655        0.4691555949
 H         -3.1883987295        0.1361567411        0.5425834289
 H         -0.8142977684        0.7085576126       -1.1630447225
 H         -1.6293330995       -0.8337606349       -1.0716489417
 H         -1.0957238558       -0.9357629137        1.3973002320
 H         -0.2050393163        0.5472536892        1.2566792948
 H          0.4471469844       -2.0555046223       -0.2184283521
 H          1.2733906445       -1.4863821269        1.2053354094
 H          1.2743172040       -0.0669896313       -1.5054304757
 H          2.5658135560       -1.0469013065       -0.8799130347
 H          1.6006165492        1.5886612850        0.3618621690
 H          3.1047382483        1.3405399468       -0.5082513854
 H          2.8533068130        0.5671408980        1.0517281751
  20
        -20.43982705
 N         -2.1163382429        0.9573654411       -0.4192544645
 C         -1.7184478446       -0.1461300551        0.5068029824
 C         -0.7363875267       -1.1443066458       -0.1250906312
 C          0.7320550395       -0.9114424478        0.2526464982
 C          1.3061792378        0.4225550167       -0.2292071830
 C          2.7860849548        0.5838188760        0.0937806082
 H         -2.5900361584        0.5807614830       -1.2468761499
 H         -1.3013169144        1.4884186690       -0.7440238880
 H         -2.7564168557        1.6161369745        0.0370744412
 H         -2.6310057068       -0.6630158820        0.8305111374
 H         -1.2869360899        0.2750776387        1.4218355465
 H         -0.8434969390       -1.1103009713       -1.2142165334
 H         -1.0185126264       -2.1671913713        0.1558771681
 H          1.3479297531       -1.7251368791       -0.1489998458
 H          0.8431376819       -0.9810030447        1.3405217214
 H          0.7410771942        1.2471043174        0.2198962267
 H          1.1495259051        0.5138095773       -1.3107275300
 H          3.1769719460        1.5407820805       -0.2562855608
 H          3.3797713230       -0.2032554394       -0.3726023381
 H          2.9630789063        0.5300522612        1.1686545153
  20
        -20.43974021
 N         -2.1366291601        1.0302601780       -0.0285416683
 C         -1.6995605032       -0.3328829890       -0.4577939656
 C         -0.7437622127       -1.0049315888        0.5402090533
 C          0.7356133566       -0.9347187566        0.1408248046
 C          1.3075889683        0.4832586588        0.0820735379
 C          2.7934672790        0.5108193237       -0.2525213781
 H         -2.6537762810        0.9825328869        0.8555216449
 H         -2.7484456994        1.4636427374       -0.7283240322
 H         -1.3348995061        1.6535022909        0.1145365848
 H         -1.2295472064       -0.2769609386       -1.4462579599
 H         -2.5969995935       -0.9482798373       -0.6010871921
 H         -1.0284796050       -2.0565939188        0.6732844863
 H         -0.8775789286       -0.5482724210        1.5263110837
 H          0.8729439221       -1.4206893226       -0.8316169650
 H          1.3347693060       -1.5272914716        0.8426410228
 H          1.1331571720        0.9834089529        1.0422740043
 H          0.7533149756        1.0702984093       -0.6589910082
 H          3.3755876926       -0.0342793836        0.4915048701
 H          3.1829684354        1.5295302013       -0.2919412792
 H          2.9883655961        0.0471837293       -1.2203294656
  20
        -20.43937191
 N         -1.8748177106        1.0243908919       -0.3904257726
 C         -1.9216147281       -0.2931785642        0.3099360043
 C         -0.7268685479       -1.2054524122        0.0289513501
 C          0.6256284501       -0.6716311323        0.5386960393
 C          1.3922177924        0.1800979796       -0.4781635642
 C          2.7143125798        0.7065879945        0.0650087050
 H         -1.7326844696        0.8974011517       -1.3985920563
 H         -1.1170879656        1.6127603422       -0.0264182467
 H         -2.7504218227        1.5432400622       -0.2606360964
 H         -2.8485884843       -0.8044140491        0.0215609181
 H         -2.0071368355       -0.1201536322        1.3888199262
 H         -0.6577982859       -1.3993382147       -1.0465822761
 H         -0.9226473961       -2.1867824293        0.4808530183
 H          1.2691186994       -1.5102880731        0.8327524371
 H          0.4696172886       -0.1016543402        1.4609704840
 H          0.7694230810        1.0162200999       -0.8112194355
 H          1.5725618306       -0.4142672030       -1.3823246078
 H          3.3726613315       -0.1110610181        0.3610008455
 H          2.5582846928        1.3317811844        0.9449184035
 H          3.2480163640        1.3068766339       -0.6739181340
  20
        -20.43914288
 N         -2.3229122032        0.8009935747       -0.1128308478
 C         -1.3151483146        0.0908235262        0.7317796214
 C         -0.5430437266       -0.9831103988       -0.0368009156
 C          0.5315671672       -0.4333148973       -0.9964589784
 C          1.9385528052       -0.3297781242       -0.3899463388
 C          2.0574883132        0.6436936261        0.7741814778
 H         -3.0108806508        0.1402870556       -0.4874258504
 H         -1.8783038656        1.2720140550       -0.9071131861
 H         -2.8285712183        1.5100204935        0.4278984375
 H         -1.8358715465       -0.3587751528        1.5864145147
 H         -0.6248414080        0.8231598615        1.1609253630
 H         -1.2699770876       -1.5845922217       -0.5952137410
 H         -0.0714116553       -1.6875584809        0.6584855571
 H          0.2232444103        0.5488287031       -1.3683786831
 H          0.5813160732       -1.0699968383       -1.8897020226
 H          2.6486615725       -0.0384992600       -1.1751421193
 H          2.2649762326       -1.3269074509       -0.0698568565
 H          1.4700513418        0.3159860825        1.6320564517
 H          1.7119811540        1.6394013117        0.4937165292
 H          3.0898874330        0.7414131315        1.1151583418
  20
        -20.43884443
 N         -2.5589882543        0.7607622390        0.3071744537
 C         -1.2790277236        0.4179617026       -0.3841009860
 C         -0.5733861788       -0.7809047979        0.2436304247
 C          0.7601531089       -1.1605415997       -0.4321345554
 C          2.0045169965       -0.4904204623        0.1683529858
 C          2.0422145743        1.0251853851        0.0318761385
 H         -3.2122638485       -0.0269597832        0.2698773828
 H         -3.0121098101        1.5700870798       -0.1275734156
 H         -2.3888474451        0.9830974733        1.2922504582
 H         -0.6236070289        1.2937724841       -0.3804472632
 H         -1.4844113615        0.2127097376       -1.4410639993
 H         -1.2626502786       -1.6331939797        0.2128347832
 H         -0.4051820517       -0.5964789485        1.3096466645
 H          0.7009113971       -0.9344224777       -1.5024043201
 H          0.8928414932       -2.2493587403       -0.3820168412
 H          2.9017303183       -0.9139882132       -0.3020434099
 H          2.0844988034       -0.7660516864        1.2270599258
 H          2.9917695896        1.4382633634        0.3774477640
 H          1.2587542975        1.5005893186        0.6218425688
 H          1.9126013206        1.3321186477       -1.0066359896
  20
        -20.43878869
 N         -1.8061575594        1.1764283948       -0.1489789702
 C         -1.6710646288       -0.2531921651        0.2643548809
 C         -0.5536534462       -1.0019228629       -0.4801483950
 C          0.7371228806       -1.1744802927        0.3314532570
 C          1.4734589383        0.1281933057        0.6624657531
 C          2.0592449171        0.8246510698       -0.5588751980
 H         -2.5553845009        1.6462356165        0.3708199102
 H         -2.0263504749        1.2448198591       -1.1483804322
 H         -0.9388165259        1.6989332573        0.0162086506
 H         -2.6368736424       -0.7472440561        0.0975026831
 H         -1.5039573114       -0.3101516094        1.3460016366
 H         -0.3375697901       -0.4850319734       -1.4202224653
 H         -0.9166921667       -1.9923855100       -0.7843632133
 H          1.4249967937       -1.8362556378       -0.2085278743
 H          0.4978053450       -1.7082066439        1.2591929440
 H          2.2805630579       -0.0813789577        1.3769359271
 H          0.7975923211        0.8049519464        1.1969493384
 H          2.5959509801        1.7358040455       -0.2883742843
 H          1.2856173116        1.1042810761       -1.2736632459
 H          2.7618684389        0.1751335026       -1.0825059939
  20
        -20.43872597
 N         -1.8763324243        1.0884086518        0.0995626155
 C         -1.3823647868       -0.0925779132       -0.6700586037
 C         -0.7193125873       -1.1519903510        0.2060598034
 C          0.5791274602       -0.7182946149        0.9003933001
 C          1.7633438257       -0.4386476483       -0.0495805818
 C          1.8991556291        1.0185518784       -0.4753378225
 H         -1.1080469073        1.5772097419        0.5720084587
 H         -2.5472509136        0.7968835498        0.8180899671
 H         -2.3447622770        1.7644211239       -0.5133973373
 H         -0.6924658408        0.2366952497       -1.4529974128
 H         -2.2316326099       -0.5342347060       -1.2064888924
 H         -0.5147791903       -2.0480000691       -0.3922247421
 H         -1.4443311154       -1.4746007644        0.9624538128
 H          0.8687084022       -1.5041268956        1.6110441772
 H          0.3958269682        0.1621785313        1.5244123176
 H          1.6797613161       -1.0853725816       -0.9313200304
 H          2.7004121896       -0.7475321998        0.4332726378
 H          1.0160674946        1.3755058859       -1.0029208049
 H          2.7524730693        1.1677293882       -1.1394876533
 H          2.0437781521        1.6682421283        0.3888690553
  20
        -20.43869303
 N         -1.8862424381        1.0850182829        0.1011152266
 C         -1.3824085449       -0.0901355060       -0.6711480854
 C         -0.7177933827       -1.1497906542        0.2035476000
 C          0.5787869687       -0.7145169614        0.9005281598
 C          1.7665416158       -0.4398656497       -0.0465616558
 C          1.9063317293        1.0156808357       -0.4766294781
 H         -2.3552677726        1.7608622620       -0.5113713837
 H         -1.1228484494        1.5760723338        0.5792321851
 H         -2.5591609490        0.7871056706        0.8151366992
 H         -0.6909189039        0.2460306947       -1.4496889752
 H         -2.2269469691       -0.5339890123       -1.2132072211
 H         -0.5102434676       -2.0441072302       -0.3962092160
 H         -1.4431749691       -1.4757559873        0.9581540739
 H          0.8653023230       -1.4977896792        1.6152275292
 H          0.3943003400        0.1686175717        1.5203649840
 H          1.6847005464       -1.0892846582       -0.9264751894
 H          2.7015398599       -0.7488438660        0.4402444330
 H          2.7607414082        1.1606996766       -1.1403590028
 H          2.0516394576        1.6677338322        0.3856144043
 H          1.0246656348        1.3731539512       -1.0061962421
  20
        -20.43861216
 N         -1.8780786679        1.0461122807       -0.2190917220
 C         -1.8530661258       -0.4342395612       -0.0282947016
 C         -0.4735974067       -1.0703287565       -0.2041126237
 C          0.5741712806       -0.6176043641        0.8320385695
 C          1.4239314372        0.5867217505        0.4023290856
 C          2.4349671534        0.2574497104       -0.6892140183
 H         -1.4713539431        1.3034588432       -1.1251264896
 H         -1.3530166079        1.5259407065        0.5206301092
 H         -2.8383421740        1.4066627382       -0.1934621979
 H         -2.5598588385       -0.8866393020       -0.7350863618
 H         -2.2435666344       -0.6714073109        0.9679668276
 H         -0.1061976700       -0.8662738881       -1.2144544471
 H         -0.5823823756       -2.1619653547       -0.1592070902
 H          1.2548618573       -1.4469864817        1.0610799561
 H          0.0643154044       -0.4057532690        1.7793403390
 H          1.9558296633        0.9894217608        1.2744024453
 H          0.7718194942        1.3996072131        0.0672456663
 H          3.0398611120        1.1257196125       -0.9569494331
 H          1.9476231252       -0.0897803795       -1.6002478211
 H          3.1181632609       -0.5299801018       -0.3683856204
  20
        -20.43859839
 N         -1.8779804562        1.0335623380       -0.2778063131
 C         -1.8519976907       -0.3703842974        0.2289002256
 C         -0.4725495479       -0.8545303505        0.6776622111
 C          0.5734010435       -0.9365930999       -0.4517623657
 C          1.4222692611        0.3293684861       -0.6358171705
 C          2.4351552074        0.5486502677        0.4813481193
 H         -1.4755429530        1.6775959809        0.4121173983
 H         -2.8380489012        1.3405035714       -0.4698021333
 H         -1.3496811735        1.1232237360       -1.1529690889
 H         -2.2412657150       -1.0372291625       -0.5489597821
 H         -2.5595489895       -0.4501980469        1.0636186856
 H         -0.5823953333       -1.8422687887        1.1444790657
 H         -0.1029015675       -0.2056629511        1.4774941377
 H          0.0622325641       -1.1920039024       -1.3875335145
 H          1.2550446549       -1.7764623803       -0.2682613139
 H          0.7699012136        1.2044871969       -0.7183337004
 H          1.9525134296        0.2781512513       -1.5959428003
 H          3.0398772917        1.4412775326        0.3109855553
 H          3.1183921360       -0.2974188059        0.5649516657
 H          1.9493403124        0.6678320395        1.4498046072
  20
        -20.43806621
 N         -2.0079137796        1.0274139461       -0.0844441341
 C         -1.3750154210       -0.0642135755        0.7152541600
 C         -0.6653367340       -1.1126873431       -0.1391167735
 C          0.5423046456       -0.6166320182       -0.9516622563
 C          1.8451874107       -0.4148942393       -0.1549680780
 C          1.9482821478        0.9079898701        0.5939927318
 H         -1.3067885659        1.5690550450       -0.6008723591
 H         -2.5205714728        1.6805278782        0.5175411874
 H         -2.6690706754        0.6409721975       -0.7660776611
 H         -2.1556610642       -0.5468151438        1.3169023354
 H         -0.6853236755        0.3686993222        1.4441886603
 H         -1.4069576219       -1.5405241899       -0.8244050078
 H         -0.3460535806       -1.9518519496        0.4900691181
 H          0.2873361492        0.3084444718       -1.4772582158
 H          0.7370407165       -1.3436259773       -1.7518866996
 H          2.6979950728       -0.4867935557       -0.8437830181
 H          1.9775041272       -1.2526226758        0.5401920956
 H          1.7926510839        1.7538227724       -0.0766321404
 H          2.9308010402        1.0348633647        1.0527199946
 H          1.2166884109        0.9850899958        1.3960967759
  20
        -20.43601897
 N         -1.7698876992        1.1287178245       -0.3876352340
 C         -1.4302106663        0.0419208792        0.5811264369
 C         -0.7400735932       -1.1595849906       -0.0831763998
 C          0.7760227970       -1.2608942147        0.1469787510
 C          1.6242242487       -0.1602591966       -0.5178655050
 C          1.7889863284        1.1023352788        0.3193959326
 H         -2.4491839052        0.7948126519       -1.0795390155
 H         -0.9410598428        1.4474456322       -0.9016282443
 H         -2.1791930479        1.9407630816        0.0871020203
 H         -2.3590809332       -0.2745614214        1.0733034598
 H         -0.8066379297        0.4357968627        1.3908508641
 H         -0.9404280393       -1.1342394070       -1.1594696079
 H         -1.2131973094       -2.0867581136        0.2663007824
 H          1.1149274787       -2.2390797871       -0.2198524079
 H          0.9837330364       -1.2788004883        1.2224744329
 H          1.1971227911        0.0832720195       -1.4977441810
 H          2.6231819320       -0.5584746131       -0.7420600497
 H          2.2517373767        0.8783363917        1.2814990827
 H          0.8349501390        1.5842322436        0.5259574569
 H          2.4195785163        1.8399132269       -0.1806514908
  20
        -20.43590421
 N         -1.7823858860        1.1277574617       -0.3863729450
 C         -1.4263416584        0.0453062881        0.5813721363
 C         -0.7371879645       -1.1540876634       -0.0885031206
 C          0.7773071121       -1.2627490097        0.1488157429
 C          1.6336909937       -0.1666789196       -0.5126326097
 C          1.7866881071        1.1028207152        0.3162200231
 H         -2.1893854817        1.9394472298        0.0907176820
 H         -2.4684441527        0.7886769736       -1.0690428693
 H         -0.9609757418        1.4480412526       -0.9111995333
 H         -2.3475382644       -0.2748145168        1.0854420467
 H         -0.7956975652        0.4448087776        1.3828186663
 H         -0.9315094266       -1.1200257855       -1.1656672938
 H         -1.2159875983       -2.0819908239        0.2511870559
 H          1.1132922716       -2.2425398028       -0.2164366109
 H          0.9798629763       -1.2814686612        1.2252640989
 H          1.2197205932        0.0692172509       -1.5000039415
 H          2.6356993884       -0.5663095823       -0.7200103527
 H          0.8305859939        1.5902098581        0.4991036769
 H          2.4294971576        1.8335736289       -0.1781922936
 H          2.2297910381        0.8861456351        1.2891666801
