  20
        -20.44226223
 N         -2.4931487255        0.8384439119       -0.2158535306
 C         -1.9857242001       -0.4395560171        0.3673978144
 C         -0.6234805242       -0.8583342619       -0.1814125585
 C          0.5163815200        0.0777740686        0.2252959493
 C          1.8857606494       -0.3836539582       -0.2821931451
 C          3.0169054923        0.5524121133        0.1220120504
 H         -1.8757102265        1.6232770650        0.0156152361
 H         -3.4280435018        1.0642265141        0.1395733827
 H         -2.5499250471        0.7724154873       -1.2370385721
 H         -2.7240491432       -1.2280242262        0.1763847116
 H         -1.9308817034       -0.3430139366        1.4575280673
 H         -0.6744995664       -0.9173982974       -1.2735699965
 H         -0.3851369787       -1.8752583343        0.1521093849
 H          0.5434647624        0.1693483632        1.3166975999
 H          0.3170231052        1.0885274191       -0.1446428679
 H          1.8526817450       -0.4807202697       -1.3741277652
 H          2.0873727641       -1.3956179408        0.0894726807
 H          2.8560991896        1.5572276037       -0.2704099496
 H          3.9837395793        0.2061186162       -0.2471771336
 H          3.0904433847        0.6359921059        1.2069591877
