  20
        -20.33202817
 N          2.5000722175       -0.8346686933        0.2138513529
 C          1.9887652216        0.4403495045       -0.3670549321
 C          0.6247434409        0.8548476486        0.1821280094
 C         -0.5174112054       -0.0806686397       -0.2227486270
 C         -1.8894031699        0.3819939740        0.2795013783
 C         -3.0253858412       -0.5491839316       -0.1213902766
 H          2.5662892507       -0.7750839581        1.2403114339
 H          3.4410739156       -1.0617202190       -0.1413675262
 H          1.8886849865       -1.6314394869       -0.0146008169
 H          1.9371641880        0.3456501549       -1.4585599258
 H          2.7263560466        1.2310893556       -0.1750555507
 H          0.3858269495        1.8731245613       -0.1493504559
 H          0.6780583596        0.9136024278        1.2751201812
 H         -0.3179945248       -1.0917066155        0.1485997312
 H         -0.5425569171       -0.1751156939       -1.3144756967
 H         -2.0889650538        1.3940895373       -0.0949925277
 H         -1.8594548690        0.4842322297        1.3716479119
 H         -2.8747746127       -1.5541275335        0.2774779957
 H         -3.1007446052       -0.6392734096       -1.2066952606
 H         -3.9923089543       -0.1949856119        0.2440903633
