  18
        -22.14886762
 N         -0.1794240450        0.9337694352       -0.5128161883
 C          0.5973582003       -0.2118511269       -0.0639786358
 C          2.1102724595       -0.0694218762       -0.2910913389
 C          2.6942115372        1.0757002597        0.5356319319
 C          2.8293190994       -1.3842959605        0.0153926906
 Cl        -3.2460428724       -0.1908485158        0.1357208281
 H          0.0932058246        1.7639258719        0.0011661210
 H         -2.0150755556        0.2670215141       -0.1273389249
 H          0.0346511769        1.1272831620       -1.4847367459
 H          0.2272157596       -1.1069335350       -0.5775049320
 H          0.4005221987       -0.3877998412        1.0000993593
 H          2.2608532612        0.1659130762       -1.3582770287
 H          2.5216174128        0.9090208793        1.5993046225
 H          2.2480169332        2.0359836093        0.2755863505
 H          3.7716865121        1.1627394060        0.3888390368
 H          2.6961965386       -1.6601580149        1.0618540348
 H          3.9014889940       -1.3068154142       -0.1696478351
 H          2.4434272698       -2.2041949158       -0.5919408321
