  12
        -12.94994679
 N         -1.5008060052        0.0000113021        0.1570353154
 C         -0.1609815325        0.0001286350       -0.4946966249
 C          0.9864529524        0.7557867944        0.1357099135
 C          0.9862225919       -0.7559153653        0.1356941782
 H         -1.4209148559        0.0015745182        1.1829539874
 H         -2.0397732788       -0.8340526769       -0.1156832620
 H         -2.0411409459        0.8323580150       -0.1180617451
 H         -0.2206275613        0.0001302390       -1.5932347274
 H          0.8031227560        1.2807213157        1.0753926191
 H          1.6918141285        1.2799246104       -0.5141121023
 H          0.8035619499       -1.2801082595        1.0758616185
 H          1.6908321976       -1.2807055899       -0.5144775722
