15
 energy: -20.489993371016 gnorm: 0.000856319500 xtb: 6.5.1 (fef0646)
N            3.38843989010484       -0.84472385029131       -0.88177558133110
C            2.42244047980040       -0.09718858219695        0.00653824534109
C            2.92289258522651       -0.10095231120256        1.40463704276076
C            3.28998708968728        0.95376815308047        2.18708054764053
C            3.71782508419024        0.55221637423716        3.47100231108514
C            3.68380762240876       -0.79350638573204        3.64212016748843
S            3.10704249539733       -1.61457099435386        2.25520371747104
H            3.05158495879538       -0.89932773254173       -1.85088277277875
H            3.50421815099970       -1.79625050033836       -0.50456726043676
H            4.30692717117115       -0.38252735211518       -0.86730376153453
H            1.45561947392710       -0.59985880778432       -0.07077024127665
H            2.32473582556133        0.92583796480840       -0.35952102472068
H            3.24464603917320        1.98003928491402        1.87042362007721
H            4.03993699532585        1.23716327825829        4.23308624147205
H            3.96062613823093       -1.36517853874203        4.50566874874221
