15
 energy: -20.600101053534 gnorm: 0.000256168348 xtb: 6.5.1 (fef0646)
N            3.06799630415435       -0.56269982415989       -1.22380499077043
C            2.57424279141455        0.13537571533170       -0.01477666365159
C            2.97688829439268       -0.59297294873217        1.22513349572738
C            3.32141220449674       -0.08718488870165        2.43851685663133
C            3.59685826361419       -1.09409234843333        3.39405169211970
C            3.46310676903152       -2.34835689767985        2.89634948138160
S            2.98340874943556       -2.33696194281310        1.25636801041142
H            2.77649508818997       -0.06871465410643       -2.07518422084284
H            2.69238701057753       -1.51922934668290       -1.24304789994000
H            4.09238563945266       -0.62956558797308       -1.20599871956359
H            1.48384011650944        0.19464911074761       -0.06339530504635
H            2.97237509520279        1.15022342662127        0.02296862818808
H            3.38043428968269        0.96211028096144        2.66106746864681
H            3.88816143925908       -0.89279840408089        4.40948018134453
H            3.61786794458625       -3.28787169029873        3.38973198536403
