  36
        -53.27553122
 N         -4.7333823982       -1.0453788407        1.4644318966
 C         -4.7631060412        0.1473568249        0.5807763154
 C         -4.1568526384       -0.1863666662       -0.7745223490
 O         -2.8552660642       -0.7402425773       -0.6447525849
 C         -1.8408289974        0.1375326621       -0.4575936721
 C         -0.5218418669       -0.4266769727       -0.3243812260
 C         -0.3198410105       -1.8137357578       -0.3999508899
 C          0.9249910179       -2.3597928560       -0.2768714528
 C          0.5892264568        0.4214447537       -0.1215735451
 C          0.4165538973        1.8269804575       -0.0519731487
 C         -0.8880907095        2.3575845823       -0.1938224347
 C         -1.9654043877        1.5530553318       -0.3883631792
 C          1.5474625160        2.6461038458        0.1502710282
 C          2.7946384241        2.1124727594        0.2786382700
 C          3.0040441162        0.7108755298        0.2118885027
 C          4.2731112631        0.1323003926        0.3368295495
 C          4.4358803994       -1.2354504555        0.2625238296
 C          3.3555425845       -2.0666244377        0.0633069185
 C          2.0615013373       -1.5418450228       -0.0679210915
 C          1.8861396624       -0.1373723601        0.0085595275
 H         -5.0765707239       -0.8395904838        2.4155951147
 H         -3.7658863677       -1.4030644614        1.5370409216
 H         -5.3101805572       -1.8060561245        1.0756167424
 H         -4.1969859072        0.9554640996        1.0554695200
 H         -5.7910488236        0.5126699253        0.4730597012
 H         -4.1246825276        0.6653655692       -1.4630484806
 H         -4.7561536770       -0.9595763112       -1.2711279535
 H         -1.1788304562       -2.4419661357       -0.5670304107
 H          1.0562309611       -3.4263845205       -0.3413337293
 H         -1.0158245899        3.4257458254       -0.1487902677
 H         -2.9345442096        2.0035533031       -0.4985477036
 H          1.4113426396        3.7130333156        0.2011163147
 H          3.6438554716        2.7562947440        0.4315945032
 H          5.1268752651        0.7698624346        0.4914090172
 H          5.4223483132       -1.6595257324        0.3606283807
 H          3.4971337069       -3.1324021944        0.0054182796
