  25
        -33.90486244
 N         -2.3598464538        1.4266466129       -0.9883732633
 C         -1.0127955382        2.0670021791       -0.9594654445
 C         -0.5058285079        2.3178465603        0.4579905504
 C         -0.1524450386        1.0336829525        1.2161503868
 C          0.9617623162        0.2575444732        0.5739235637
 C          2.2675548515        0.7224320713        0.6321268230
 C          3.2914217299        0.0280659825        0.0187866243
 C          3.0214479128       -1.1406401479       -0.6643345793
 C          1.7264787667       -1.6132324642       -0.7318858244
 C          0.7049268253       -0.9177873092       -0.1170901078
 Cl        -2.5740874032       -1.8467707141        0.3126313534
 H         -2.3439171681        0.4890406792       -0.5583261522
 H         -2.7118511719        1.3162507574       -1.9500629085
 H         -3.0463950057        1.9921998757       -0.4650511241
 H         -1.0554036170        3.0121840681       -1.5156168367
 H         -0.2955760300        1.4415479846       -1.5035207417
 H         -1.2612352220        2.8865577676        1.0135042597
 H          0.3795125757        2.9649000702        0.4257576964
 H         -1.0381067833        0.3953525883        1.3002617354
 H          0.1322267302        1.2669793290        2.2492076157
 H          2.4759934834        1.6363961751        1.1630009872
 H          4.3022845108        0.3996143995        0.0728886868
 H          3.8205041518       -1.6831458736       -1.1438288831
 H          1.5122517407       -2.5257395963       -1.2648326138
 H         -0.3055749671       -1.2876681536       -0.1638755362
