  22
        -34.27833141
 N         -3.1386616626       -0.2735626290       -0.8318097313
 C         -3.0730079357       -1.2001181259        0.2862233581
 C         -1.9177354022       -2.1929943023        0.1714249625
 C         -0.5822634899       -1.5136735856        0.1243451301
 C          0.0637155413       -1.2999024378       -1.0847256382
 C          1.2745686876       -0.6328872960       -1.1276965381
 C          1.8493369570       -0.1692234393        0.0354690874
 Br         3.5068976615        0.7441993306       -0.0249023383
 C          1.2153913980       -0.3694524259        1.2423300968
 C          0.0042177380       -1.0356456373        1.2868934745
 Cl        -5.7399377208        1.5962820422        0.0886503258
 H         -3.2351636212       -0.7934457051       -1.6976511598
 H         -2.2565498769        0.2206593240       -0.9070850509
 H         -4.6956713322        0.8503728612       -0.2864070121
 H         -4.0334694413       -1.7259057934        0.3678975132
 H         -2.9774860286       -0.6218111846        1.2130397902
 H         -2.0449215318       -2.8018843903       -0.7294996369
 H         -1.9323438986       -2.8997965712        1.0089064822
 H         -0.3883475709       -1.6557873024       -1.9950093680
 H          1.7797791924       -0.4670551231       -2.0653334164
 H          1.6743152289        0.0012214357        2.1444720426
 H         -0.4958607417       -1.1855049502        2.2286836085
