  22
        -34.27833141
 N         -3.1386616626       -0.2735626290       -0.8318097313
 C         -3.0730079357       -1.2001181259        0.2862233581
 C         -1.9177354022       -2.1929943023        0.1714249625
 C         -0.5822634899       -1.5136735856        0.1243451301
 C          0.0637155413       -1.2999024378       -1.0847256382
 C          1.2745686876       -0.6328872960       -1.1276965381
 C          1.8493369570       -0.1692234393        0.0354690874
 Br         3.5068976615        0.7441993306       -0.0249023383
 C          1.2153913980       -0.3694524259        1.2423300968
 C          0.0042177380       -1.0356456373        1.2868934745
 Cl        -5.7399377208        1.5962820422        0.0886503258
 H         -3.2351636212       -0.7934457051       -1.6976511598
 H         -2.2565498769        0.2206593240       -0.9070850509
 H         -4.6956713322        0.8503728612       -0.2864070121
 H         -4.0334694413       -1.7259057934        0.3678975132
 H         -2.9774860286       -0.6218111846        1.2130397902
 H         -2.0449215318       -2.8018843903       -0.7294996369
 H         -1.9323438986       -2.8997965712        1.0089064822
 H         -0.3883475709       -1.6557873024       -1.9950093680
 H          1.7797791924       -0.4670551231       -2.0653334164
 H          1.6743152289        0.0012214357        2.1444720426
 H         -0.4958607417       -1.1855049502        2.2286836085
  22
        -34.27812745
 N         -3.1247478690       -1.3810880816       -1.1468874215
 C         -3.0840996419       -2.1134126290        0.1116515757
 C         -2.4187073142       -1.3158140077        1.2334268595
 C         -1.0397117133       -0.8510633123        0.8749037684
 C         -0.8354233748        0.4240679627        0.3683656951
 C          0.4301521457        0.8428390468        0.0029094305
 C          1.5033139602       -0.0115243001        0.1325126886
 Br         3.2368032571        0.5606012154       -0.3710887811
 C          1.3131085293       -1.2843009833        0.6253696604
 C          0.0474184971       -1.7040177440        0.9924813412
 Cl        -4.0912523889        1.6674094053       -0.2376435198
 H         -3.5951678644       -1.9222821308       -1.8651794134
 H         -2.1775513920       -1.2338507659       -1.4799516383
 H         -3.7325833794        0.4393660667       -0.6258489137
 H         -2.5530197412       -3.0641263339       -0.0310261983
 H         -4.1083280436       -2.3815626719        0.3995959731
 H         -2.3729807190       -1.9087907467        2.1537919027
 H         -3.0343757579       -0.4442950007        1.4795065818
 H         -1.6782250449        1.0831850257        0.2477326179
 H          0.5913606117        1.8339175608       -0.3890824361
 H          2.1607691504       -1.9437155660        0.7175266322
 H         -0.1037674063       -2.7007283054        1.3708609291
  22
        -34.27770102
 N         -3.7626535078       -1.0840741654       -0.7965864091
 C         -3.4336776871       -2.1331323013        0.1587363215
 C         -2.0863736704       -2.7934698663       -0.1306631277
 C         -0.9420457140       -1.8270918124       -0.0779498595
 C         -0.4033922623       -1.4408205012        1.1403837933
 C          0.6367067853       -0.5306974279        1.1937564379
 C          1.1451332705        0.0057318717        0.0310010883
 Br         2.5683768543        1.2521449822        0.1049743822
 C          0.6137475798       -0.3631094338       -1.1855583267
 C         -0.4270083960       -1.2722753993       -1.2404695080
 Cl        -2.0075611247        1.5902726511        0.1708688769
 H         -4.7299877132       -0.7921826547       -0.6889632081
 H         -3.6814764443       -1.4465484076       -1.7404666335
 H         -2.7001135946        0.5159444954       -0.2195708083
 H         -4.2301684735       -2.8901237663        0.1759878159
 H         -3.4157361192       -1.6919963145        1.1623145942
 H         -2.1142094956       -3.2636759814       -1.1190378193
 H         -1.8982690402       -3.6094173220        0.5766563528
 H         -0.8066115052       -1.8547325397        2.0490375773
 H          1.0556359398       -0.2269220731        2.1392844484
 H          1.0157382802        0.0700074637       -2.0870116073
 H         -0.8485805686       -1.5528326918       -2.1906495081
  22
        -34.27764126
 N         -3.8094135776       -1.0685353998        0.5555048447
 C         -3.4137216958       -2.1371052211       -0.3517992053
 C         -2.0910671631       -2.7903314906        0.0468435859
 C         -0.9451041374       -1.8245282770        0.0559168581
 C         -0.5377006213       -1.2181328133        1.2350985044
 C          0.5047228991       -0.3091208829        1.2357274652
 C          1.1454231276        0.0077074156        0.0578629007
 Br         2.5713914867        1.2532014572        0.0599053701
 C          0.7444604008       -0.5802059283       -1.1219825772
 C         -0.2973930024       -1.4897820230       -1.1241093239
 Cl        -1.9957410264        1.5761159438       -0.3869387955
 H         -3.7930528754       -1.4101401673        1.5103318495
 H         -4.7675368253       -0.7816829999        0.3753937206
 H         -2.7121309797        0.5143085544       -0.0053716533
 H         -3.3234901783       -1.7165586059       -1.3611683979
 H         -4.2069652456       -2.8942938455       -0.4102708295
 H         -1.8538814918       -3.6208183650       -0.6277382162
 H         -2.1895567470       -3.2397148057        1.0406014794
 H         -1.0449639746       -1.4579496601        2.1541088730
 H          0.8228875509        0.1644013486        2.1502566002
 H          1.2487000867       -0.3171657430       -2.0375961297
 H         -0.6165497483       -1.9438740230       -2.0468020044
  22
        -34.27759252
 N         -3.7605244062       -1.0681148913       -0.8264446148
 C         -3.4352496903       -2.1239825851        0.1228191968
 C         -2.0890391865       -2.7856572104       -0.1686338723
 C         -0.9422280326       -1.8228844469       -0.1057127438
 C         -0.3611664128       -1.4982274111        1.1112043976
 C          0.6807259264       -0.5907601204        1.1742408705
 C          1.1476876688        0.0055034513        0.0232864619
 Br         2.5731785411        1.2484931010        0.1104657473
 C          0.5732493954       -0.3010455091       -1.1909915567
 C         -0.4686431159       -1.2082490576       -1.2555905950
 Cl        -2.0197463415        1.5799321843        0.2383293887
 H         -4.7286322371       -0.7776164700       -0.7219986250
 H         -3.6745473016       -1.4236099494       -1.7725207155
 H         -2.7066798591        0.5171372040       -0.1915157078
 H         -4.2335090323       -2.8792127979        0.1340773510
 H         -3.4176676292       -1.6892173376        1.1291898164
 H         -2.1152687182       -3.2476625489       -1.1609171389
 H         -1.9052807512       -3.6079956593        0.5324002971
 H         -0.7321090193       -1.9586111259        2.0112172576
 H          1.1338592646       -0.3361742906        2.1185249644
 H          0.9420743235        0.1794956372       -2.0825345639
 H         -0.9244289737       -1.4398431331       -2.2031536686
  22
        -34.27729167
 N         -4.4926219480       -0.6763306756        1.2436276847
 C         -3.0590276053       -0.4174114244        1.2901763059
 C         -2.2950183724       -1.1574135074        0.1957947119
 C         -0.8423712340       -0.7886860986        0.1512366772
 C         -0.4154351561        0.2947534964       -0.6024666985
 C          0.9188366037        0.6583782647       -0.6191852688
 C          1.8375343357       -0.0528808876        0.1216128272
 Br         3.6642103777        0.4456846618        0.0986180055
 C          1.4250232140       -1.1259582698        0.8813938676
 C          0.0910728075       -1.4908716103        0.8994551090
 Cl        -5.0337203232        0.8310577836       -1.6819995802
 H         -4.9626712843       -0.2460240085        2.0335374447
 H         -4.6639666970       -1.6731031917        1.3196558866
 H         -4.8362692331        0.2282367574       -0.5053209800
 H         -2.6496376840       -0.6830719905        2.2739239552
 H         -2.8927660319        0.6611043808        1.1821333095
 H         -2.7518977739       -0.9496431679       -0.7770740538
 H         -2.3975851465       -2.2385842070        0.3359588202
 H         -1.1363257633        0.8540753934       -1.1745057028
 H          1.2541639126        1.4980546236       -1.2060242595
 H          2.1535995855       -1.6712784400        1.4590381397
 H         -0.2334346739       -2.3244198977        1.4989290004
  22
        -34.27680415
 N         -4.4824638346       -1.6442383768       -0.0845390156
 C         -3.0287400605       -1.6381056129       -0.1947946481
 C         -2.3594716137       -0.9107719940        0.9697657752
 C         -0.9174942886       -0.5974879167        0.7058234036
 C         -0.5695980990        0.5643081720        0.0326168422
 C          0.7552014255        0.8468540198       -0.2451496947
 C          1.7435405107       -0.0322104751        0.1412331114
 Br         3.5578070391        0.3544973882       -0.2392311975
 C          1.4102470450       -1.1945595151        0.8024084072
 C          0.0856191064       -1.4787580760        1.0811166815
 Cl        -4.6096850935        1.6535365606       -0.6245506555
 H         -4.7580664947       -2.0602402579        0.7981264822
 H         -4.8992980376       -2.2165294263       -0.8117791840
 H         -4.5894227176        0.3340892292       -0.4147903163
 H         -2.7547986649       -1.1422835865       -1.1348323566
 H         -2.6369090624       -2.6599130057       -0.2758973628
 H         -2.4520444155       -1.5020965096        1.8866072853
 H         -2.8959142663        0.0212716508        1.1757090507
 H         -1.3464707882        1.2431443116       -0.2765634418
 H          1.0290649449        1.7502286028       -0.7654966889
 H          2.1933205455       -1.8750557971        1.0949487867
 H         -0.1767737613       -2.3902960340        1.5906954654
  22
        -34.27519085
 N         -4.5403943653       -1.5977317054       -0.1789807995
 C         -3.1012252276       -1.8024525672       -0.0643138567
 C         -2.3300277420       -1.1507485440       -1.2161676196
 C         -0.9357874778       -0.7561286393       -0.8315269954
 C          0.1521350529       -1.5608124346       -1.1346889099
 C          1.4271133785       -1.1907752282       -0.7461492160
 C          1.6247597292       -0.0193199198       -0.0474293518
 Br         3.3716377701        0.4840875993        0.4825945429
 C          0.5501164639        0.7837937433        0.2676704901
 C         -0.7242882240        0.4152846457       -0.1197714680
 Cl        -4.0050308047        1.6583206713        0.4375941029
 H         -5.0396625242       -2.1124774608        0.5390340439
 H         -4.8684449660       -1.9579507397       -1.0682269807
 H         -4.2594537163        0.3685585312        0.1995486542
 H         -2.8556632136       -2.8705298419        0.0083270483
 H         -2.7699795897       -1.3624759338        0.8844598850
 H         -2.8670080533       -0.2573563930       -1.5516172226
 H         -2.3098389481       -1.8132840792       -2.0881188597
 H         -0.0044987990       -2.4791633288       -1.6746732573
 H          2.2766870644       -1.8108690350       -0.9818953240
 H          0.7174333410        1.6948345390        0.8188728376
 H         -1.5713988522        1.0300921152        0.1350566609
  22
        -34.27120056
 N         -4.7843855468       -2.2407765808       -0.1730871001
 C         -3.5525091589       -1.4739541115       -0.1209163238
 C         -2.2999020949       -2.3445668205       -0.0986693029
 C         -1.0356904676       -1.5393582849       -0.0440323936
 C         -0.4061207692       -1.1326652470       -1.2105156017
 C          0.7371506638       -0.3568170949       -1.1595376261
 C          1.2584517485        0.0259238047        0.0567472125
 Br         2.8207205995        1.0943920267        0.1253653586
 C          0.6382644405       -0.3652741820        1.2229871324
 C         -0.5048812621       -1.1413028093        1.1735060082
 Cl        -2.0427128427        1.6264086678       -0.1261596983
 H         -4.8500040933       -2.8602488717        0.6263344889
 H         -4.7983280379       -2.8285327763       -0.9981870238
 H         -2.8271525733        2.6854895710       -0.1614156478
 H         -3.5734072182       -0.8229737791        0.7621887366
 H         -3.5197783240       -0.7906075160       -0.9778367039
 H         -2.2835573054       -2.9921159616       -0.9813293619
 H         -2.3371852694       -3.0251299118        0.7583947382
 H         -0.8208090612       -1.4220275234       -2.1612850487
 H          1.2283847320       -0.0388384967       -2.0647617135
 H          1.0526190798       -0.0537751088        2.1680335591
 H         -0.9967933674       -1.4376039063        2.0844137682
  22
        -34.27115229
 N         -2.3941618242       -3.6223995235        0.5553889685
 C         -3.0370190262       -2.8613858984       -0.4994743474
 C         -2.9990947566       -1.3537715256       -0.2560942949
 C         -1.6003109340       -0.8220557464       -0.1687167341
 C         -0.8629466676       -0.5917702907       -1.3198434227
 C          0.4387910623       -0.1321511789       -1.2421744007
 C          1.0182763185        0.0960967411       -0.0134196192
 Br         2.7996732034        0.7304427663        0.0924923110
 C          0.2993476343       -0.1373446732        1.1383109773
 C         -1.0024454783       -0.5964289538        1.0618750878
 Cl        -2.1221871478        2.3213419739        0.0311987329
 H         -1.4262710755       -3.3385906596        0.6511299101
 H         -2.8404429665       -3.4356033605        1.4455971408
 H         -2.6775969164        3.5172271570        0.0397727412
 H         -4.0709896517       -3.2137694303       -0.6097304439
 H         -2.5450519053       -3.0995087914       -1.4500521286
 H         -3.5327915154       -1.1174974219        0.6701637115
 H         -3.5366656918       -0.8213632458       -1.0490359709
 H         -1.3155354279       -0.7740399665       -2.2798412654
 H          1.0125369703        0.0524228805       -2.1358071405
 H          0.7645749574        0.0444997194        2.0934707456
 H         -1.5629491192       -0.7811815373        1.9625358860
  22
        -34.27104804
 N         -2.9766194833       -3.3216519813        1.0539782290
 C         -2.2466500375       -4.1284326603        0.0942358918
 C         -1.8268921255       -3.3449578285       -1.1483329832
 C         -0.9257996086       -2.1923938131       -0.8215401183
 C          0.4215648950       -2.4029980461       -0.5688617313
 C          1.2470886038       -1.3480428965       -0.2246230972
 C          0.7342092675       -0.0731200363       -0.1232249531
 Br         1.8742671536        1.3661925271        0.3516930809
 C         -0.6048317515        0.1474937233       -0.3653868491
 C         -1.4312009377       -0.9052651767       -0.7104125209
 Cl        -1.0575029495        3.7281732413        0.1786306864
 H         -2.4123412731       -2.5338382396        1.3483933619
 H         -3.8138329497       -2.9377480081        0.6308837383
 H          0.0347475748        2.9813004200        0.2671674894
 H         -2.8626976463       -4.9950917267       -0.1793314075
 H         -1.3621355555       -4.5447109242        0.5909483670
 H         -2.7170824919       -2.9716232351       -1.6648449342
 H         -1.3238055340       -4.0022954288       -1.8666418397
 H          0.8206656114       -3.4006459909       -0.6400483466
 H          2.2949523779       -1.5089878031       -0.0297516241
 H         -0.9992043001        1.1464552689       -0.2803249169
 H         -2.4782721512       -0.7316387296       -0.8921246316
  22
        -34.27099652
 N         -1.7618516431       -4.1062832567       -1.6706434224
 C         -2.6487515283       -3.7635281803       -0.5748597355
 C         -1.9017970645       -3.4109221380        0.7103438895
 C         -0.9946122242       -2.2296654935        0.5403763021
 C         -1.5088118640       -0.9417105358        0.5489128759
 C         -0.6814931599        0.1477186166        0.3508317167
 C          0.6675552051       -0.0368733071        0.1359735700
 Br         1.8095957575        1.4522351756       -0.1380338506
 C          1.1896566429       -1.3120264304        0.1183014518
 C          0.3636141324       -2.4032852519        0.3170115524
 Cl        -1.1297380208        3.7770851510        0.2608067885
 H         -1.1800054506       -4.8978222120       -1.4213480631
 H         -1.1351355677       -3.3351365598       -1.8666749094
 H         -0.0353101933        3.0439902379        0.1074770152
 H         -3.3423150541       -4.5981037879       -0.4078023152
 H         -3.2768734636       -2.9204234984       -0.8863365197
 H         -1.3134362599       -4.2729262445        1.0410776339
 H         -2.6083160061       -3.2075121544        1.5231314266
 H         -2.5638842090       -0.7971347685        0.7089589877
 H         -1.0826797093        1.1475548161        0.3607462073
 H          2.2455830348       -1.4440241653       -0.0534509594
 H          0.7719139187       -3.3994377304        0.2959078404
  22
        -34.27092051
 N         -3.8719804213       -1.1028279709        0.2370826807
 C         -3.3836608098       -2.2725409692       -0.4685692228
 C         -2.0949589459       -2.8395632732        0.1244409064
 C         -0.9619600987       -1.8585707508        0.0991997602
 C         -0.2977291759       -1.5829137960       -1.0861425052
 C          0.7326864839       -0.6614814276       -1.1179070079
 C          1.1067092364       -0.0040439061        0.0333144424
 Br         2.5149323769        1.2616566208       -0.0115418196
 C          0.4510307199       -0.2644430468        1.2162622891
 C         -0.5804363588       -1.1840296037        1.2493763616
 Cl        -1.8381070468        1.6208683732       -0.0870276711
 H         -3.2165313927       -0.3305630069        0.1542918595
 H         -3.9704320346       -1.3007055069        1.2260814784
 H         -2.6394345337        2.6460600942       -0.3045396415
 H         -3.2296406227       -2.0081933222       -1.5223125598
 H         -4.1747285030       -3.0328172548       -0.4720585450
 H         -1.7934236917       -3.7475253278       -0.4099363473
 H         -2.2756446879       -3.1542320146        1.1576509133
 H         -0.5943729354       -2.0935522142       -1.9866290332
 H          1.2500207433       -0.4443235016       -2.0382433591
 H          0.7498258650        0.2612017652        2.1086316743
 H         -1.0977410392       -1.3808163124        2.1730181026
  22
        -34.27009275
 N         -1.5334160281       -4.3758799343       -1.2294929777
 C         -2.2652483537       -4.0896811136       -0.0099242437
 C         -2.7227387283       -2.6351350918        0.0850415894
 C         -1.5751337638       -1.6709128649        0.0651133349
 C         -1.2074099940       -1.0292169236       -1.1086245962
 C         -0.1219063076       -0.1726383806       -1.1323439487
 C          0.6082894756        0.0486721492        0.0150704889
 Br         2.0782412666        1.2427785582       -0.0133974008
 C          0.2586309506       -0.5884254326        1.1857921318
 C         -0.8257660419       -1.4463340130        1.2105396117
 Cl        -0.9592541632        3.4943755161        0.4601397446
 H         -2.1064757145       -4.1737043899       -2.0400991493
 H         -0.7156227443       -3.7812834223       -1.2958761123
 H          0.0001328936        2.5968254189        0.2936005689
 H         -1.6253452531       -4.3378086072        0.8462616727
 H         -3.1204251890       -4.7737127613        0.0571738927
 H         -3.3110345828       -2.4749865682        0.9955321601
 H         -3.3990327403       -2.4079931343       -0.7456637758
 H         -1.7746738512       -1.2056635948       -2.0067760250
 H          0.1639871344        0.3299183111       -2.0421142909
 H          0.8401646725       -0.4089831042        2.0754678072
 H         -1.0956341176       -1.9501219617        2.1231551323
  22
        -34.27003746
 N         -3.8029019856       -1.2027034773       -0.4905214777
 C         -3.3820018230       -2.2467425744        0.4261041690
 C         -2.0399642478       -2.8792345772        0.0583450442
 C         -0.9070669402       -1.8977586226        0.0534078260
 C         -0.3527344849       -1.4577634142       -1.1400850085
 C          0.6754680956       -0.5325041231       -1.1399297513
 C          1.1524620139       -0.0310852071        0.0515885522
 Br         2.5161322643        1.2813724959        0.0481458540
 C          0.6160150775       -0.4650173715        1.2443122604
 C         -0.4093731787       -1.3932373997        1.2456598333
 Cl        -2.0596022269        1.7520328722       -0.1851962596
 H         -3.7452282982       -1.5221579290       -1.4505497898
 H         -3.2193541470       -0.3745589194       -0.4117138368
 H         -0.9533581921        1.0417093601       -0.0782833406
 H         -4.1691436413       -3.0115509520        0.4599954210
 H         -3.3395707407       -1.8302848905        1.4395049922
 H         -2.1159914629       -3.3457261605       -0.9292342273
 H         -1.7996133417       -3.6954895492        0.7492367137
 H         -0.7331589340       -1.8403299506       -2.0719894500
 H          1.1076768357       -0.1880681625       -2.0656121743
 H          1.0027411190       -0.0690866244        2.1695222799
 H         -0.8328784043       -1.7292407045        2.1768953362
  22
        -34.26971437
 N         -3.8694060957       -1.0683903850        0.2794093615
 C         -3.3995971960       -2.2435382500       -0.4304006783
 C         -2.1085409559       -2.8240651656        0.1455119901
 C         -0.9658631175       -1.8542842367        0.1155666273
 C         -0.3385301135       -1.5438125710       -1.0816674216
 C          0.6973391333       -0.6280139593       -1.1175355498
 C          1.1145369118       -0.0109534323        0.0418003012
 Br         2.5122084224        1.2663838906       -0.0126024957
 C          0.5015872483       -0.3124456300        1.2386583000
 C         -0.5359405837       -1.2262277234        1.2757384223
 Cl        -1.8765761805        1.5868245041       -0.1542591408
 H         -3.2229702315       -0.2923633436        0.1666117407
 H         -3.9382251503       -1.2556599598        1.2730301570
 H         -0.9876309445        2.5482592778       -0.3177828761
 H         -3.2581519393       -1.9823949838       -1.4867145908
 H         -4.1979390927       -2.9961401085       -0.4218925650
 H         -1.8204926598       -3.7312242196       -0.3976043326
 H         -2.2816155465       -3.1440498250        1.1783752301
 H         -0.6692842246       -2.0214285319       -1.9883229567
 H          1.1837691152       -0.3823041633       -2.0474714810
 H          0.8353173948        0.1792379909        2.1379059785
 H         -1.0218291274       -1.4521787423        2.2096576816
  22
        -34.26962673
 N         -4.6816652252       -2.5747700119       -0.2232780561
 C         -3.4905276501       -1.7464192261       -0.1664503946
 C         -2.1974233333       -2.5540936314       -0.1061565433
 C         -0.9754424949       -1.6866401280       -0.0490620924
 C         -0.3678821221       -1.2456492640       -1.2154252755
 C          0.7301080505       -0.4064373608       -1.1630844080
 C          1.2271782612        0.0048395426        0.0542391193
 Br         2.7171587224        1.1706601706        0.1242658122
 C          0.6313871951       -0.4235018662        1.2203626806
 C         -0.4667148408       -1.2625591143        1.1698086804
 Cl        -2.0035282277        2.0261653597       -0.0760069179
 H         -4.7318949152       -3.1786796389        0.5885262714
 H         -4.6557306561       -3.1794276824       -1.0364447022
 H         -1.1324818631        1.0376238343       -0.0471946760
 H         -3.5595304726       -1.0801623213        0.7027384372
 H         -3.4776259524       -1.0793458352       -1.0366487910
 H         -2.1345158222       -3.2177854605       -0.9745979296
 H         -2.2159085683       -3.2181852865        0.7642998729
 H         -0.7627992938       -1.5603476699       -2.1667097177
 H          1.2067006873       -0.0646349857       -2.0677250463
 H          1.0312873442       -0.0948141477        2.1660692258
 H         -0.9389443685       -1.5901382139        2.0805601586
  22
        -34.26959148
 N         -4.3399577524       -3.6548695608       -0.2614297586
 C         -3.3254538530       -2.6192776812       -0.1795346755
 C         -1.9022424558       -3.1689041456       -0.1756751813
 C         -0.8638596724       -2.0895485961       -0.0972021463
 C         -0.3564293105       -1.5122437554       -1.2519755512
 C          0.5739393342       -0.4915841760       -1.1784289625
 C          0.9999332628       -0.0328535682        0.0491387406
 Br         2.2475093389        1.3886789892        0.1485215667
 C          0.4995102354       -0.5936612295        1.2041291944
 C         -0.4306151268       -1.6145739512        1.1320789867
 Cl        -1.1900887238        3.0442828530       -0.0243832072
 H         -4.2556438719       -4.2951153714        0.5191121258
 H         -4.2199249613       -4.2044516923       -1.1046297759
 H         -0.0775023567        2.3284393692        0.0281228711
 H         -3.4996283411       -2.0185981914        0.7221058024
 H         -3.4574649130       -1.9229947201       -1.0162778517
 H         -1.7360405107       -3.7716502221       -1.0744352006
 H         -1.7747367193       -3.8607674684        0.6634974066
 H         -0.6978773482       -1.8639976878       -2.2107794869
 H          0.9702110666       -0.0412364690       -2.0740417692
 H          0.8378893155       -0.2223722425        2.1578437642
 H         -0.8300453390       -2.0462850768        2.0340560673
  22
        -34.26957400
 N         -2.6931609161       -4.1963230221       -0.9711076272
 C         -1.3801108727       -4.7934221979       -1.1276408469
 C         -0.4109774710       -4.4059043262       -0.0120133247
 C         -0.1798820408       -2.9264207915        0.0585775049
 C         -0.8600659730       -2.1446039079        0.9810608817
 C         -0.6747535860       -0.7743709245        1.0152661563
 C          0.1877174375       -0.1719736637        0.1257079205
 Br         0.4423279060        1.7024328882        0.1759314861
 C          0.8641838604       -0.9356232719       -0.8002990857
 C          0.6795608386       -2.3058518167       -0.8360292366
 Cl         0.8779831564        4.8608980974        0.2701623787
 H         -2.6175348317       -3.1861900982       -0.9501930179
 H         -3.1023148605       -4.4743967700       -0.0869137105
 H          1.0591427884        6.1678866026        0.3102235757
 H         -0.9728238540       -4.4890730591       -2.1000324609
 H         -1.4923200562       -5.8832056699       -1.1867658817
 H          0.5509156387       -4.9140354246       -0.1436204893
 H         -0.7995243900       -4.7565317947        0.9498413046
 H         -1.5395697659       -2.6142507656        1.6719532845
 H         -1.1999797872       -0.1645669183        1.7323410094
 H          1.5331596576       -0.4510682965       -1.4927976759
 H          1.2019849406       -2.9028775457       -1.5641347971
  22
        -34.26956339
 N         -2.0226948203       -4.0536269008        0.4612656393
 C         -2.8106486187       -3.3281438963       -0.5173245945
 C         -2.9508756805       -1.8428515054       -0.1885574158
 C         -1.6269282411       -1.1430385040       -0.1229039438
 C         -0.9672850505       -0.7767617209       -1.2865843981
 C          0.2711090371       -0.1636612569       -1.2308011515
 C          0.8639974398        0.0845856049       -0.0122245643
 Br         2.5478602900        0.9460815764        0.0643659922
 C          0.2249833762       -0.2845774883        1.1512203695
 C         -1.0134745926       -0.8974614677        1.0969865358
 Cl        -1.6840412090        2.8221239704        0.0658565763
 H         -2.4407720915       -3.9748092176        1.3811283371
 H         -1.0947953091       -3.6531454612        0.5286516373
 H         -1.0235207731        1.6822925829        0.0213041129
 H         -3.7960398522       -3.8050180805       -0.6011791877
 H         -2.3424620015       -3.4514264339       -1.5011872664
 H         -3.4682356697       -1.7260471994        0.7692105513
 H         -3.5856084175       -1.3424087479       -0.9287330869
 H         -1.4285653139       -0.9778795851       -2.2387347036
 H          0.7860491375        0.1224914742       -2.1337765003
 H          0.7040577451       -0.0918880650        2.0976608380
 H         -1.5095000324       -1.1924536200        2.0061505171
  22
        -34.26925025
 N         -2.4546215571       -3.4453745836       -1.1813117090
 C         -3.0324585951       -2.8896066952        0.0308122241
 C         -2.9917524448       -1.3626568826        0.0429484246
 C         -1.5920533397       -0.8261619389        0.0323247614
 C         -0.9947075346       -0.4268603830       -1.1534767286
 C          0.3079014189        0.0364460083       -1.1643963268
 C          1.0278484212        0.1008725373        0.0083499984
 Br         2.8105040303        0.7406683636       -0.0066363750
 C          0.4487141327       -0.3009311874        1.1920730386
 C         -0.8535070387       -0.7652752834        1.2040119421
 Cl        -2.1560013662        2.2712337611        0.4346248445
 H         -2.4226762133       -4.4583784981       -1.1525677043
 H         -1.5041668953       -3.1164817769       -1.3024442961
 H         -2.7225635286        3.4470506914        0.6223829062
 H         -2.5039370664       -3.2792212057        0.9109395442
 H         -4.0678564160       -3.2417575117        0.1174559636
 H         -3.5217768632       -0.9674947168        0.9168784568
 H         -3.5307219116       -0.9786576882       -0.8293984079
 H         -1.5561297036       -0.4811331568       -2.0708220190
 H          0.7729499889        0.3522743674       -2.0840840224
 H          1.0231847003       -0.2472125664        2.1025193976
 H         -1.3057146764       -1.0831852503        2.1281141743
  22
        -34.26917358
 N         -1.8386567327       -4.3442038761        0.8767319649
 C         -2.7606524624       -3.7213113870       -0.0578468086
 C         -2.0452365110       -3.1485430088       -1.2801023645
 C         -1.0897903423       -2.0502363326       -0.9222032308
 C          0.2641230510       -2.3097535258       -0.7671748612
 C          1.1358924541       -1.3030040605       -0.3938641677
 C          0.6641247009       -0.0283403653       -0.1668919588
 Br         1.8680744462        1.3443323922        0.3464768058
 C         -0.6802688664        0.2400592177       -0.3119276520
 C         -1.5530811811       -0.7648420440       -0.6843351911
 Cl        -0.9947805337        3.7902414238        0.4968923357
 H         -2.3107638317       -4.6640421052        1.7150179882
 H         -1.1257514706       -3.6843442682        1.1641022286
 H          0.0761296350        3.0085868240        0.4722487028
 H         -3.3242135414       -2.9251255341        0.4463783855
 H         -3.5014364107       -4.4687748411       -0.3679207871
 H         -2.7690298039       -2.7721905697       -2.0117176962
 H         -1.4987607430       -3.9499798461       -1.7880378477
 H          0.6323409600       -3.3076086721       -0.9355601092
 H          2.1885928819       -1.5016869408       -0.2744764273
 H         -1.0418915815        1.2383791995       -0.1295739068
 H         -2.6042808454       -0.5563072781       -0.7894640615
  22
        -34.26910586
 N         -2.5339349715       -2.8367864720       -2.2404114038
 C         -3.3316152787       -1.6650179090       -1.9200227369
 C         -3.0499565655       -1.1416381551       -0.5128788827
 C         -1.6333377218       -0.6809192168       -0.3454777589
 C         -0.6837311788       -1.5047584758        0.2398187487
 C          0.6289517308       -1.0883600387        0.3637899520
 C          1.0064025218        0.1527398180       -0.0999964765
 Br         2.8032658487        0.7253216387        0.0756075362
 C          0.0743393447        0.9769393556       -0.6915139675
 C         -1.2381722207        0.5613825313       -0.8167962913
 Cl        -1.8965346908        1.2582915644        2.2137226639
 H         -1.5478861818       -2.6343519933       -2.1273133669
 H         -2.6732359941       -3.1359582082       -3.1992207243
 H         -2.3321669360        1.8386048476        3.3147395644
 H         -4.3931075737       -1.9259319768       -2.0222142556
 H         -3.1418554713       -0.8709214367       -2.6531085680
 H         -3.2601905561       -1.9308198304        0.2161544276
 H         -3.7280003918       -0.3177338865       -0.2624714158
 H         -0.9777142699       -2.4770549327        0.5973914581
 H          1.3682643736       -1.7248192628        0.8222529469
 H          0.3824790699        1.9454379348       -1.0505024473
 H         -1.9669623792        1.2043564278       -1.2804550726
  22
        -34.26905792
 N         -4.7682745012       -2.3193908051       -0.0857134828
 C         -3.5527800331       -1.5210890486       -0.0914264581
 C         -2.2916964499       -2.3793129561       -0.0853304484
 C         -1.0342404749       -1.5637183606       -0.0330010050
 C         -0.4409071976       -1.1062491627       -1.1995501271
 C          0.6955443502       -0.3205387943       -1.1497680054
 C          1.2462610684        0.0213513203        0.0657147447
 Br         2.7982115047        1.1049587409        0.1326848101
 C          0.6624630527       -0.4209770073        1.2325149743
 C         -0.4741050434       -1.2067878173        1.1842842920
 Cl        -1.9717541821        1.6675247635       -0.1961344719
 H         -4.7886778458       -2.9460702114       -0.8817971877
 H         -5.5983407989       -1.7393474018       -0.1362634637
 H         -2.7377045139        2.7407353491       -0.1964227004
 H         -3.5524817079       -0.8694114593        0.7913521863
 H         -3.5398568086       -0.8480080157       -0.9579808151
 H         -2.2757594283       -3.0215637883       -0.9718576765
 H         -2.3213617647       -3.0656034518        0.7674158460
 H         -0.8787887086       -1.3638090238       -2.1490771716
 H          1.1581117719        0.0376189125       -2.0550854529
 H          1.0998231549       -0.1416134587        2.1772322427
 H         -0.9377064783       -1.5431566613        2.0961214396
  22
        -34.26903923
 N         -2.3573291359       -3.6115518350       -0.9454935454
 C         -3.0777286114       -2.8325236695        0.0475215255
 C         -3.0015582354       -1.3322622796       -0.2294249813
 C         -1.5990955743       -0.8073473462       -0.1608637366
 C         -0.8603512834       -0.6024637606       -1.3164778832
 C          0.4437266998       -0.1480250011       -1.2468282005
 C          1.0236218617        0.1014071237       -0.0223168852
 Br         2.8080727225        0.7292293185        0.0726631889
 C          0.3031416017       -0.1066565904        1.1333371209
 C         -1.0003684247       -0.5618502486        1.0650230246
 Cl        -2.1567464190        2.3106264540        0.4893579583
 H         -2.3512756226       -4.5992901104       -0.7166576358
 H         -1.3923777305       -3.3080136374       -1.0003269654
 H         -2.7371107083        3.4909939216        0.5833072309
 H         -2.6804494435       -3.0429592426        1.0493348524
 H         -4.1236917093       -3.1632081552        0.0598308646
 H         -3.6287388107       -0.7751417592        0.4756260942
 H         -3.4152564387       -1.1256734181       -1.2219443902
 H         -1.3116828262       -0.8030907291       -2.2733914653
 H          1.0191177193        0.0158021741       -2.1434535290
 H          0.7684132356        0.0919512099        2.0851142728
 H         -1.5636672763       -0.7264122681        1.9678725293
