27
 energy: -35.426951726159 gnorm: 0.000184940084 xtb: 6.5.1 (fef0646)
N            1.18519558732480        0.78496379603656        0.28767155000284
C            2.41534077396644       -0.01733684629254        0.00345221947989
C            3.46194804675545        0.89063758441248       -0.63013849835054
C            2.91340866348549       -0.65527626090019        1.28042603207691
C            2.94093643748986       -2.05929182015977        1.38718369902574
C            3.39151806039329       -2.66465558236054        2.52597652299172
C            3.34386884106194        0.10995225973968        2.33508473387794
C            3.81850339962650       -0.48382514325328        3.52097578161453
C            3.84145602491583       -1.89950773550014        3.62204081111096
C            4.31823819029892       -2.49249981282182        4.80941970729685
C            4.75767571901424       -1.71778169746178        5.84637153779624
C            4.73909198504268       -0.31683568659501        5.74469980467720
C            4.27768228888246        0.28783059714213        4.60950696446005
H            0.84900786273243        1.23737491352853       -0.57113088067167
H            1.39853294349115        1.51509137312949        0.97778148517814
H            0.43961302006877        0.18939172595936        0.66626789065858
H            2.14666342566837       -0.80652621491701       -0.70280503803028
H            3.72319622195009        1.71324003112968        0.02835962054107
H            3.10913358167368        1.28963004274608       -1.57665878571488
H            4.36783887939745        0.32469146473501       -0.82454173216604
H            2.60797958484114       -2.66297078663442        0.55664723438180
H            3.41249784867222       -3.74161303738508        2.60474931445852
H            3.35216628415083        1.18849332620799        2.28653378190233
H            4.33282711594503       -3.57041982938945        4.88513003189745
H            5.12440498345787       -2.17712128177244        6.75265461276804
H            5.09432335492641        0.27578486002903        6.57480848322463
H            4.26560087476713        1.36516976064860        4.53354311551261
