  25
        -33.86152452
 N         -1.0940088492        0.3986058786        0.7801363662
 C         -1.1470214472        1.6855452388        0.1019546402
 C          0.1684776907        2.4646036249        0.1541120069
 C          1.2554718117        1.9154073284       -0.7810920913
 C          1.7108136395        0.5266887931       -0.4377887962
 C          1.3484157823       -0.5570663902       -1.2267235691
 C          1.6922173058       -1.8419795431       -0.8588803981
 C          2.4123017525       -2.0599583860        0.2977422820
 C          2.7898295923       -0.9910594620        1.0843190837
 C          2.4399177779        0.2932894574        0.7187839528
 Cl        -4.0598436082       -0.8763515279       -0.0126243421
 H         -0.8708770621        0.5424131552        1.7587868833
 H         -0.3150360073       -0.1260976981        0.4029700625
 H         -2.8646699167       -0.3674815367        0.3101573006
 H         -1.9624954842        2.2719849088        0.5466522165
 H         -1.4447283106        1.5267127790       -0.9413662284
 H          0.5406787075        2.4652973297        1.1842518929
 H         -0.0190252984        3.5191141851       -0.0868835471
 H          2.1292914104        2.5778073362       -0.7762041064
 H          0.8889485399        1.9291113367       -1.8134369357
 H          0.7779095506       -0.3879109786       -2.1249785626
 H          1.3988393131       -2.6759127418       -1.4762941981
 H          2.6824174158       -3.0635946939        0.5846228615
 H          3.3541440441       -1.1592066384        1.9875301573
 H          2.7217949432        1.1278402920        1.3388570839
