  36
        -55.05782779
 N         -4.8036973644        0.5223987577       -1.6553963234
 C         -5.1472518523        1.5539091447       -0.6372245034
 C         -4.5062469854        1.2547820819        0.7153534164
 C         -3.0174488660        1.0933523112        0.6268508180
 C         -2.4536998186       -0.1615150217        0.4469650781
 C         -1.0890974920       -0.3140100366        0.3233033479
 C         -0.2391024863        0.7911015382        0.3707868852
 C          1.2089576418        0.6728043507        0.2386926617
 C          1.8968306801       -0.4772271559        0.2573456449
 C          3.3441654865       -0.5930724767        0.1198692998
 C          4.1486783570        0.4900225274       -0.2333393124
 C          5.5175580399        0.3577529970       -0.3614753074
 F          6.2773537629        1.4271327909       -0.7065146989
 C          6.1044193853       -0.8751653610       -0.1356752436
 C          5.3285526901       -1.9621012807        0.2113404225
 C          3.9621400361       -1.8254348998        0.3372224709
 C         -0.8141596197        2.0509189316        0.5373351072
 C         -2.1793877976        2.1982561919        0.6611754433
 Cl        -5.0338162487       -2.5881667389       -0.0921903014
 H         -5.3252246706        0.6475949691       -2.5390405644
 H         -5.0045099068       -0.4278155792       -1.2921590435
 H         -3.7971015404        0.5489343706       -1.8783619043
 H         -6.2371862422        1.6228906558       -0.5345014343
 H         -4.8192685462        2.5372562499       -0.9954635787
 H         -4.9378232965        0.3372173838        1.1312717897
 H         -4.7435267632        2.0436605958        1.4392184693
 H         -3.1016467619       -1.0213328157        0.3884100667
 H         -0.6790642316       -1.2977074538        0.1718404554
 H          1.7511976068        1.5965248454        0.1374916130
 H          1.3597807044       -1.3980993631        0.4024998720
 H          3.7169422465        1.4545349530       -0.4272590848
 H          7.1718276389       -0.9654818269       -0.2380801380
 H          5.7926847059       -2.9203511304        0.3844615300
 H          3.3577746140       -2.6750993509        0.6092776689
 H         -0.1746959146        2.9179016539        0.5694998521
 H         -2.6092003785        3.1792199240        0.7829420126
