42
 energy: -47.509307383919 gnorm: 0.000399058353 xtb: 6.5.1 (fef0646)
N            2.84109126558448       -2.13286360340809       -2.16494102247711
C            4.30694685733648       -1.94921479044256       -2.16357744074990
C            4.72845488337276       -1.02503397284940       -1.02851464382844
C            4.42429820243965       -1.56289109331277        0.37275662161203
C            5.02865211244684       -2.93253943805526        0.69233196471944
C            6.55498057059805       -2.94993210365083        0.62867612987531
C            7.11903441253605       -4.30041044636800        1.06546370361580
C            8.64425913344139       -4.33743253467803        1.00407929130865
C            9.19632189574352       -5.69655190460162        1.42746017942653
C           10.72177083370447       -5.74303144425031        1.38425251325999
C           11.26122318526711       -7.11145413191528        1.79395788261029
C           12.78694655216076       -7.16493701713889        1.76780398478662
C           13.31216191072479       -8.53896498514183        2.16719297963250
Cl           1.37091378609416        0.55221414839323       -2.20187367931404
H            2.53078619956920       -2.67420518393107       -2.97387957155027
H            2.35835365509052       -1.19935808616677       -2.19752787763924
H            2.53858418454962       -2.59146092352424       -1.30307518972324
H            4.59813782889044       -1.49496807330339       -3.10979690037276
H            4.79169574646063       -2.92083807708939       -2.07044138357357
H            4.20259810585987       -0.07598728589991       -1.14981942016110
H            5.79510543412965       -0.82496424420297       -1.11891137587241
H            3.34355104320611       -1.60134138901274        0.52214541847149
H            4.80788048486423       -0.83892192513924        1.09478982483847
H            4.63719315986291       -3.69654065685290        0.02017190220829
H            4.72120525702234       -3.20853040957356        1.70386484425452
H            6.95365385845990       -2.16651185181575        1.27729261611658
H            6.89080926535090       -2.74066520932170       -0.38771919747388
H            6.71764142268693       -5.08702657212279        0.42248895984675
H            6.79724323382684       -4.51520836703183        2.08740451246494
H            9.05273646067774       -3.56252490090261        1.65716946404601
H            8.97324489876816       -4.11658562105953       -0.01393878166968
H            8.79554878429603       -6.46990751570639        0.76801178904864
H            8.85952956572372       -5.92239508760732        2.44213217282233
H           11.12658811807814       -4.97998470068655        2.05351650995650
H           11.06336277310658       -5.50851274864168        0.37328183442687
H           10.86385237573443       -7.87244930152819        1.11811235019191
H           10.91104908678014       -7.35015958094680        2.80114329953265
H           13.18563982916242       -6.41125882904840        2.45067653126980
H           13.13918941516484       -6.91968192072230        0.76332746404606
H           12.98364808136520       -8.79434913234940        3.17221874804692
H           14.39904968168624       -8.55492215122887        2.14632229487482
H           12.94362644817498       -9.30046693716234        1.48355069709428
