19
 energy: -28.640001610022 gnorm: 0.000723133639 xtb: 6.5.1 (fef0646)
N            1.10954796258735       -0.11656772564011       -0.33631305046538
C            2.56193854923645       -0.02837674883539       -0.40243708358466
C            3.14924336869583       -0.45999478459248       -1.75846891448695
C            4.63330111089132       -0.33452106333123       -1.76271076252548
C            5.56667318489908       -1.31074177637465       -1.60869288090465
C            6.89255051873789       -0.81909749285804       -1.61983228559921
C            6.94757775151426        0.52550592426098       -1.77658354991080
S            5.38207329136549        1.22278096777452       -1.91513031296248
Cl           0.12515917507212        0.68923386372269        2.32660257289537
H            0.58647065827157        0.32189842373367        1.10588133695966
H            0.79737578321829       -1.06757601006440       -0.50303295381826
H            0.68008040586255        0.48866322988528       -1.02851171165843
H            2.97273482677680       -0.65769775091985        0.38962148548915
H            2.84483456260867        1.00622133910679       -0.19756770632710
H            2.72182435839008        0.16698404473708       -2.54579141714744
H            2.87815662385509       -1.49979597988903       -1.95847173753681
H            5.32072050263653       -2.35173182705560       -1.49675114389181
H            7.76135647426115       -1.44374641241206       -1.51605890761600
H            7.80930089111922        1.16097977875165       -1.82103097690874
