  33
        -46.39389591
 N         -5.0896627949        1.3252829516       -1.2726863111
 C         -5.4791691323        0.0604683641       -0.5864546794
 C         -4.7338940885       -0.1435094610        0.7311492487
 C         -3.2503672007       -0.2690798393        0.5513667988
 C         -2.6893745837       -1.4713081352        0.1363233630
 C         -1.3332056304       -1.5910002246       -0.0503871419
 C         -2.4111252935        0.8195898543        0.7651549641
 C         -1.0537231425        0.7092032292        0.5797452696
 C         -0.4885791136       -0.4992802824        0.1693050759
 N          0.8537403551       -0.6147401494       -0.0111384507
 N          1.6306557437        0.3896583446        0.1733900416
 C          2.9784698839        0.2674117705        0.0233272359
 C          3.5510801158       -0.9605396815       -0.3168901622
 C          4.9123025920       -1.0790591847       -0.4646478724
 C          5.7285004169        0.0215907085       -0.2772290402
 C          5.1770488113        1.2441847678        0.0598250169
 C          3.8165927245        1.3706278293        0.2101137773
 H         -5.2931235021        2.1447627468       -0.6816980641
 H         -5.5959911088        1.4510680484       -2.1625970677
 H         -4.0774505076        1.3367385465       -1.4845912606
 H         -5.2842873124       -0.7859480242       -1.2547437175
 H         -6.5628857667        0.0628323553       -0.4158968352
 H         -5.1062130037       -1.0348492170        1.2481094279
 H         -4.9454135887        0.6930157454        1.4039733137
 H         -3.3315555231       -2.3186177577       -0.0344272117
 H         -0.9000693901       -2.5246504054       -0.3656207980
 H         -2.8346901419        1.7564154508        1.0859902706
 H         -0.4019147923        1.5479368412        0.7514638116
 H          2.9030793170       -1.8084149778       -0.4582198929
 H          5.3450430318       -2.0314405049       -0.7263741115
 H          6.7962214460       -0.0737600728       -0.3935608569
 H          5.8163198977        2.1002458338        0.2054590689
 H          3.3762374261        2.3172318363        0.4731953044
