  33
        -46.39389591
 N         -5.0896627949        1.3252829516       -1.2726863111
 C         -5.4791691323        0.0604683641       -0.5864546794
 C         -4.7338940885       -0.1435094610        0.7311492487
 C         -3.2503672007       -0.2690798393        0.5513667988
 C         -2.6893745837       -1.4713081352        0.1363233630
 C         -1.3332056304       -1.5910002246       -0.0503871419
 C         -2.4111252935        0.8195898543        0.7651549641
 C         -1.0537231425        0.7092032292        0.5797452696
 C         -0.4885791136       -0.4992802824        0.1693050759
 N          0.8537403551       -0.6147401494       -0.0111384507
 N          1.6306557437        0.3896583446        0.1733900416
 C          2.9784698839        0.2674117705        0.0233272359
 C          3.5510801158       -0.9605396815       -0.3168901622
 C          4.9123025920       -1.0790591847       -0.4646478724
 C          5.7285004169        0.0215907085       -0.2772290402
 C          5.1770488113        1.2441847678        0.0598250169
 C          3.8165927245        1.3706278293        0.2101137773
 H         -5.2931235021        2.1447627468       -0.6816980641
 H         -5.5959911088        1.4510680484       -2.1625970677
 H         -4.0774505076        1.3367385465       -1.4845912606
 H         -5.2842873124       -0.7859480242       -1.2547437175
 H         -6.5628857667        0.0628323553       -0.4158968352
 H         -5.1062130037       -1.0348492170        1.2481094279
 H         -4.9454135887        0.6930157454        1.4039733137
 H         -3.3315555231       -2.3186177577       -0.0344272117
 H         -0.9000693901       -2.5246504054       -0.3656207980
 H         -2.8346901419        1.7564154508        1.0859902706
 H         -0.4019147923        1.5479368412        0.7514638116
 H          2.9030793170       -1.8084149778       -0.4582198929
 H          5.3450430318       -2.0314405049       -0.7263741115
 H          6.7962214460       -0.0737600728       -0.3935608569
 H          5.8163198977        2.1002458338        0.2054590689
 H          3.3762374261        2.3172318363        0.4731953044
  33
        -46.39380951
 N         -5.1094501777        1.1839747673       -1.3858476905
 C         -5.4853856835        0.5987341532       -0.0673511623
 C         -4.7343720010       -0.6971275188        0.2323353840
 C         -3.2500128646       -0.5055283781        0.3278861461
 C         -2.6820711873        0.0383109986        1.4741025404
 C         -1.3250026536        0.2337644169        1.5658771386
 C         -2.4166135465       -0.8409260879       -0.7343939296
 C         -1.0580952496       -0.6490642490       -0.6511947502
 C         -0.4861442569       -0.1087362769        0.5017198304
 N          0.8573219050        0.0772308646        0.5922606307
 N          1.6328161610       -0.2347304001       -0.3812593502
 C          2.9811165517       -0.0747943580       -0.2779830938
 C          3.8203159113       -0.4099216338       -1.3450431793
 C          5.1810498143       -0.2501613422       -1.2365604439
 C          5.7322064318        0.2440945308       -0.0682619937
 C          4.9151827692        0.5796122381        0.9957147926
 C          3.5533123343        0.4230254817        0.8948587106
 H         -4.1011209875        1.3927638236       -1.4241638140
 H         -5.6174027547        2.0616657151       -1.5750383358
 H         -5.3221253063        0.5288272326       -2.1575852866
 H         -6.5684495929        0.4262275478       -0.0460345547
 H         -5.2847259340        1.3320439507        0.7221350945
 H         -4.9531566032       -1.4344602267       -0.5463150097
 H         -5.0957570117       -1.1425477987        1.1654676866
 H         -3.3194827907        0.3025807472        2.3007407544
 H         -0.8865716150        0.6491371211        2.4568963885
 H         -2.8454140431       -1.2624601771       -1.6279421911
 H         -0.4106771964       -0.9155372440       -1.4683069642
 H          3.3802756423       -0.7947725198       -2.2493171653
 H          5.8211735022       -0.5112495270       -2.0641984503
 H          6.8003077554        0.3672851518        0.0132468285
 H          5.3474569495        0.9637615414        1.9057464140
 H          2.9047444685        0.6785558479        1.7149390349
  33
        -46.39374544
 N         -5.0783287326        1.0237097757        1.5912259254
 C         -5.4816036562       -0.0757310202        0.6688643955
 C         -4.7450919500       -0.0157985579       -0.6680059570
 C         -3.2594059942       -0.1639417205       -0.5258031182
 C         -2.6991058756       -1.4047420047       -0.2458695402
 C         -1.3408658021       -1.5492070905       -0.0959638541
 C         -2.4163225537        0.9363291268       -0.6460635036
 C         -1.0563068209        0.8005837876       -0.5000691798
 C         -0.4925562821       -0.4456257135       -0.2218167251
 N          0.8517018567       -0.5869330085       -0.0780181045
 N          1.6388374304        0.4167083789       -0.2177610633
 C          2.9852613399        0.2717146704       -0.0751958789
 C          3.5391970570       -0.9688526434        0.2499212172
 C          4.8987527656       -1.1110060805        0.3918001330
 C          5.7321409486       -0.0220967490        0.2118296507
 C          5.1994647672        1.2125334964       -0.1113099673
 C          3.8405987272        1.3629716679       -0.2540859804
 H         -4.0672609839        0.9899171469        1.7872393928
 H         -5.5736694452        0.9685505519        2.4944299368
 H         -5.2851217014        1.9494622477        1.1786933234
 H         -6.5661272930       -0.0333262735        0.5100503766
 H         -5.2891544692       -1.0398547358        1.1532940661
 H         -4.9668651931        0.9342632976       -1.1639986924
 H         -5.1160222184       -0.7923902270       -1.3455216895
 H         -3.3435630323       -2.2622305735       -0.1520733089
 H         -0.9086031041       -2.5120365541        0.1156087180
 H         -2.8387781071        1.9030210290       -0.8629811518
 H         -0.4017233135        1.6486766753       -0.6006203930
 H          2.8779104535       -1.8073004121        0.3857646112
 H          5.3166779566       -2.0726670082        0.6434633155
 H          6.7985791265       -0.1360659494        0.3230944835
 H          5.8522914962        2.0590843951       -0.2522907229
 H          3.4149566211        2.3189963347       -0.5071128254
  33
        -46.38970788
 N         -6.7595747321        0.5955513930       -0.6842858871
 C         -5.2824059903        0.4262044874       -0.8118434326
 C         -4.6174322720        0.0596599650        0.5108326776
 C         -3.1317678966       -0.1153928059        0.3941810636
 C         -2.2757133084        0.9687027952        0.5500403726
 C         -0.9160473650        0.8165556737        0.4215142153
 C         -2.5856455141       -1.3583048911        0.0904079391
 C         -1.2268364908       -1.5195221392       -0.0397091040
 C         -0.3653074663       -0.4320916944        0.1256613780
 N          0.9790398714       -0.5890226911        0.0001834725
 N          1.7740117865        0.4075961484        0.1456193807
 C          3.1217543894        0.2474058657        0.0362575302
 C          3.6724192663       -1.0082558278       -0.2311862683
 C          5.0335262275       -1.1653496053       -0.3381861646
 C          5.8715548430       -0.0764171862       -0.1812757519
 C          5.3419807239        1.1732611422        0.0837998382
 C          3.9817090389        1.3384879964        0.1924398108
 H         -7.2050319489       -0.2713759682       -0.3499084866
 H         -7.1974158201        0.8431574324       -1.5846917509
 H         -6.9921667403        1.3430235249       -0.0083989361
 H         -4.8402852219        1.3491445241       -1.2038074842
 H         -5.0651526212       -0.3445734584       -1.5601522637
 H         -5.0622536064       -0.8593583287        0.9050220891
 H         -4.8354476678        0.8278476694        1.2588743816
 H         -2.6890396513        1.9367160757        0.7768193796
 H         -0.2513420088        1.6534257422        0.5469878162
 H         -3.2415176444       -2.2025428941       -0.0412756824
 H         -0.8053307298       -2.4828637368       -0.2697168472
 H          3.0076224654       -1.8465022423       -0.3500213559
 H          5.4491226471       -2.1387357751       -0.5444362816
 H          6.9391292781       -0.2021072690       -0.2654710799
 H          5.9981528970        2.0201489674        0.2058161192
 H          3.5583627120        2.3065808258        0.3991622348
