33
 energy: -46.405597972141 gnorm: 0.000691090566 xtb: 6.5.1 (fef0646)
N            3.08246989450423        1.37567557834845       -1.98668545012997
C            2.51211710214859        2.03685502625633       -0.77658319707957
C            3.11421980044384        1.34883603071779        0.45331000877590
C            4.61466194716478        1.37938334605125        0.32723377103369
C            5.34987907131857        2.47024564198254        0.78398200415116
C            6.70642641788961        2.54853499046146        0.56946477469239
C            5.28526615480413        0.35558974373309       -0.35742676117388
C            6.64972048150989        0.40965612983135       -0.55488130475972
C            7.38538969021271        1.51982551583360       -0.11235945857102
N            8.73785676268397        1.47405338211320       -0.15367313161104
N            9.45495726246762        2.42879141953093       -0.53965475199217
C           10.81646983892908        2.33166644880865       -0.35303607789212
C           11.45000320132632        1.27652338143959        0.32073690361133
C           12.81932813937014        1.28572888880632        0.46850973018324
C           13.57001738860615        2.33636434730709       -0.04563548647874
C           12.94957048725299        3.38406445713043       -0.71169579682992
C           11.57890567971833        3.38731254875503       -0.86841351881924
H            3.06388018579626        1.97600710603349       -2.81553064608748
H            2.58904122171239        0.50125816859258       -2.19522622418132
H            4.08009688777439        1.13452735129083       -1.70848127699914
H            1.42474625523567        1.97176436343470       -0.79037875602219
H            2.80744059813365        3.08659353481139       -0.78867961461267
H            2.75287949163128        0.32162895164544        0.52192587222847
H            2.79141663073707        1.87878418001648        1.34757939821661
H            4.84759757359696        3.26523426785408        1.31468997925449
H            7.27787871698616        3.38623228299295        0.93697910537973
H            4.75671725645271       -0.54695041085523       -0.64178679124731
H            7.16477190070527       -0.39235094391602       -1.05919091672820
H           10.84669460005188        0.47138928875082        0.71367897740734
H           13.31163616831440        0.47559021279911        0.98598495528190
H           14.64263200749627        2.33697707867057        0.07549854359325
H           13.53994744502337        4.19681022818211       -1.10586757245141
H           11.07245373999994        4.19040746259380       -1.38059729014051
