  21
        -25.71976504
 N         -2.5784679407        0.7593311773       -0.9086103058
 C         -2.4739545611       -0.5063154479       -0.1263378400
 C         -1.4470745115       -0.4223293793        1.0026809842
 C         -0.0455753424       -0.2035830634        0.5152466458
 C          0.6907608490       -1.2601403053       -0.0302641867
 C          1.9880247963       -1.0610737921       -0.4913373264
 C          2.5680305824        0.1997970810       -0.4167242030
 C          1.8483279220        1.2607287675        0.1193333577
 C          0.5506159031        1.0610942738        0.5801438118
 H         -1.6743982016        1.0092863271       -1.3344457248
 H         -2.8689378297        1.5443929055       -0.3074615423
 H         -3.2715903137        0.6817052773       -1.6723126884
 H         -2.2107991543       -1.3261854973       -0.8045470021
 H         -3.4631597222       -0.7590431281        0.2764070484
 H         -1.4717538133       -1.3340048899        1.6102830534
 H         -1.7217199671        0.3877054596        1.6852497879
 H          0.2483913782       -2.2403767209       -0.0813914483
 H          2.5469767326       -1.8868145910       -0.9016807723
 H          3.5757244838        0.3531694291       -0.7692739312
 H          2.2992482882        2.2380282170        0.1845359357
 H          0.0007953186        1.8841646247        1.0044645446
