  21
  -25.719765039999999        8.5151985847200490E-002 !mtd6
 N         -2.5784679407        0.7593311773       -0.9086103058
 C         -2.4739545611       -0.5063154479       -0.1263378400
 C         -1.4470745115       -0.4223293793        1.0026809842
 C         -0.0455753424       -0.2035830634        0.5152466458
 C          0.6907608490       -1.2601403053       -0.0302641867
 C          1.9880247963       -1.0610737921       -0.4913373264
 C          2.5680305824        0.1997970810       -0.4167242030
 C          1.8483279220        1.2607287675        0.1193333577
 C          0.5506159031        1.0610942738        0.5801438118
 H         -1.6743982016        1.0092863271       -1.3344457248
 H         -2.8689378297        1.5443929055       -0.3074615423
 H         -3.2715903137        0.6817052773       -1.6723126884
 H         -2.2107991543       -1.3261854973       -0.8045470021
 H         -3.4631597222       -0.7590431281        0.2764070484
 H         -1.4717538133       -1.3340048899        1.6102830534
 H         -1.7217199671        0.3877054596        1.6852497879
 H          0.2483913782       -2.2403767209       -0.0813914483
 H          2.5469767326       -1.8868145910       -0.9016807723
 H          3.5757244838        0.3531694291       -0.7692739312
 H          2.2992482882        2.2380282170        0.1845359357
 H          0.0007953186        1.8841646247        1.0044645446
  21
  -25.719760850000000        8.4775271635897376E-002 !mtd6
 N         -2.5815381419        0.7540040612       -0.9116569033
 C         -2.4743277165       -0.5084412832       -0.1245920112
 C         -1.4467915876       -0.4182940877        1.0034071062
 C         -0.0455324777       -0.2007361938        0.5146365335
 C          0.6881346981       -1.2576116552       -0.0336091582
 C          1.9859661916       -1.0605671103       -0.4940404340
 C          2.5693146133        0.1985997912       -0.4156043606
 C          1.8521930366        1.2599246676        0.1230402449
 C          0.5537781822        1.0623909293        0.5827813679
 H         -2.8718469325        1.5406680525       -0.3128572467
 H         -3.2740333966        0.6726839391       -1.6716308006
 H         -1.6758662238        1.0043242523       -1.3414109318
 H         -2.2104672099       -1.3305431875       -0.7997927972
 H         -3.4627210519       -0.7613534803        0.2801154553
 H         -1.4702829660       -1.3271892354        1.6152120256
 H         -1.7218650776        0.3944796609        1.6825067780
 H          0.2433185920       -2.2366726683       -0.0868117156
 H          2.5427620099       -1.8867069242       -0.9064068824
 H          3.5777353112        0.3502886013       -0.7668247232
 H          2.3057873971        2.2357999498        0.1916903737
 H          0.0062690399        1.8858250708        1.0093120354
  21
  -25.719755469999999        8.4294009766205699E-002 !mtd2
 N         -2.5610327559       -0.1263781200       -1.2288841306
 C         -2.4967161216        0.3491057633        0.1833706069
 C         -1.4474270867       -0.3921845332        1.0115897281
 C         -0.0454390709       -0.1778716727        0.5235117917
 C          0.6082299681       -1.1507509466       -0.2401638448
 C          1.9058515974       -0.9437498298       -0.6968955135
 C          2.5686840492        0.2413096058       -0.4000706981
 C          1.9314900632        1.2190650333        0.3541398014
 C          0.6335859926        1.0114868684        0.8107930800
 H         -1.6551572865       -0.0051607525       -1.7041034941
 H         -3.2687003954        0.3897118139       -1.7734419532
 H         -2.8072696696       -1.1290619137       -1.2741479536
 H         -3.4883965413        0.2413312487        0.6406921472
 H         -2.2807413997        1.4238377913        0.1904713965
 H         -1.6705966683       -1.4637518666        1.0074981027
 H         -1.5060160179       -0.0883002403        2.0625848916
 H          0.1033662194       -2.0748139501       -0.4639425352
 H          2.4010531991       -1.7063169197       -1.2764110174
 H          3.5764489403        0.3995835135       -0.7502579494
 H          2.4457554856        2.1370119969        0.5901420059
 H          0.1457536409        1.7682761772        1.4018766794
  21
  -25.719744909999999        8.3357306550666810E-002 !mtd3
 N         -2.5588419223        0.7090636412        1.0182462412
 C         -2.4697639007       -0.5151877346        0.1708389930
 C         -1.4746339535       -0.3687433639       -0.9800758958
 C         -0.0597110933       -0.1752875409       -0.5214194694
 C          0.6917275774       -1.2595305715       -0.0567849574
 C          2.0026795235       -1.0851620112        0.3746210959
 C          2.5815628313        0.1781973837        0.3509760259
 C          1.8469117653        1.2664005994       -0.1040393872
 C          0.5355041369        1.0914366635       -0.5352113433
 H         -1.6446539887        0.9431760064        1.4312975228
 H         -3.2283985237        0.5890912907        1.7934801608
 H         -2.8707423574        1.5236754659        0.4639941934
 H         -3.4683646059       -0.7530042435       -0.2171535942
 H         -2.1844996856       -1.3667516779        0.7994909181
 H         -1.7682106696        0.4769143840       -1.6099387019
 H         -1.5165976196       -1.2459209520       -1.6351799803
 H          0.2501954486       -2.2414173492       -0.0460528669
 H          2.5730580833       -1.9317885100        0.7218362432
 H          3.5999214254        0.3125435958        0.6798508947
 H          2.2967831992        2.2460179555       -0.1297145151
 H         -0.0259780908        1.9360282238       -0.8974289984
  21
  -25.719732279999999        8.2250647798337614E-002 !mtd6
 N         -2.5872642845        0.7571308183       -0.9078530864
 C         -2.4739157681       -0.5084747083       -0.1267182852
 C         -1.4463578373       -0.4192036959        1.0013269740
 C         -0.0449250532       -0.2013598567        0.5130992837
 C          0.6903333255       -1.2586279255       -0.0324967426
 C          1.9886532991       -1.0614866493       -0.4914382278
 C          2.5709418475        0.1981717379       -0.4143726790
 C          1.8523061411        1.2598731430        0.1215866765
 C          0.5534411522        1.0622001228        0.5800649512
 H         -3.2790561836        0.6758547199       -1.6682148621
 H         -1.6852509167        1.0130289668       -1.3349344004
 H         -2.8826066884        1.5422006589       -0.3041219136
 H         -2.2067854296       -1.3264456639       -0.8056593048
 H         -3.4611284984       -0.7672482243        0.2770960670
 H         -1.4699473400       -1.3286106842        1.6123687841
 H         -1.7216130149        0.3930645029        1.6809794585
 H          0.2464111354       -2.2380826896       -0.0849835265
 H          2.5466518018       -1.8878506031       -0.9018252212
 H          3.5796563127        0.3499340848       -0.7647164920
 H          2.3051044777        2.2361634463        0.1888871667
 H          0.0046672554        1.8858709748        1.0045595488
  21
  -25.719732270000002        8.2249777431067816E-002 !mtd3
 N         -2.5682592357        0.7330881538        0.9979231534
 C         -2.4691506094       -0.5114962680        0.1818304280
 C         -1.4733837323       -0.3875227262       -0.9712042795
 C         -0.0584358072       -0.1855291738       -0.5162512970
 C          0.6985906545       -1.2642464367       -0.0477654515
 C          2.0100393734       -1.0824222904        0.3790551274
 C          2.5837533952        0.1831126968        0.3473372489
 C          1.8433556859        1.2659831026       -0.1110470934
 C          0.5315139033        1.0835195643       -0.5378314208
 H         -3.2395569786        0.6284310491        1.7736396908
 H         -2.8824701766        1.5293385231        0.4240309289
 H         -1.6542519808        0.9839475557        1.4091668325
 H         -3.4655237231       -0.7657370818       -0.2014520905
 H         -2.1791032877       -1.3450406018        0.8320779180
 H         -1.7666006795        0.4455439883       -1.6177883729
 H         -1.5152220647       -1.2774362631       -1.6089171329
 H          0.2609697368       -2.2477919454       -0.0304329146
 H          2.5847889546       -1.9249460717        0.7290322562
 H          3.6024859434        0.3232786978        0.6726401390
 H          2.2891815599        2.2472653640       -0.1429153540
 H         -0.0343865953        1.9239892799       -0.9026940989
  21
  -25.719718870000001        8.1091721056523805E-002 !mtd5
 N         -2.5635671613       -0.1107882346       -1.2279947616
 C         -2.4975180619        0.3487621917        0.1894655061
 C         -1.4468537833       -0.4013126398        1.0078966617
 C         -0.0454669599       -0.1824836599        0.5199551034
 C          0.6144125084       -1.1564876598       -0.2369849342
 C          1.9126339066       -0.9468203609       -0.6907715189
 C          2.5698593890        0.2423394909       -0.3978844835
 C          1.9263972991        1.2213921070        0.3492546572
 C          0.6280325478        1.0109269518        0.8033030485
 H         -2.8086654807       -1.1100786858       -1.2832386375
 H         -1.6581297333        0.0160020437       -1.7029915823
 H         -3.2743363757        0.4121715710       -1.7674689357
 H         -3.4885717583        0.2355913387        0.6469425103
 H         -2.2823702391        1.4235068929        0.2084907377
 H         -1.6705738654       -1.4726603248        0.9931561892
 H         -1.5032729863       -0.1082439216        2.0620766300
 H          0.1140384581       -2.0837756042       -0.4575180884
 H          2.4132419981       -1.7104801636       -1.2641740605
 H          3.5783724233        0.4025726621       -0.7450243383
 H          2.4364425772        2.1424221898        0.5823565302
 H          0.1359646220        1.7681233391        1.3903151297
  21
  -25.719718759999999        8.1082282413199008E-002 !mtd3
 N         -2.5205221626       -0.9160546329        0.9592528329
 C         -2.4977423963        0.3540526020        0.1775291340
 C         -1.4893129490        0.3260147600       -0.9708043480
 C         -0.0674285896        0.1965238113       -0.5110221169
 C          0.6065676135       -1.0269202946       -0.5884595928
 C          1.9243968485       -1.1422204124       -0.1579700127
 C          2.5875672699       -0.0362823177        0.3606301584
 C          1.9303708836        1.1848638716        0.4483415611
 C          0.6123886937        1.2997200032        0.0171341909
 H         -2.7794589885       -1.7148544388        0.3621082584
 H         -3.2013079269       -0.8760073444        1.7329695719
 H         -1.5943359038       -1.1185534170        1.3699251325
 H         -2.2662191893        1.1864211238        0.8520248623
 H         -3.5063751128        0.5538368888       -0.2063801964
 H         -1.5813817634        1.2309666103       -1.5819881612
 H         -1.7273951267       -0.5030845214       -1.6441410285
 H          0.1013308244       -1.8840348579       -0.9995059266
 H          2.4353664108       -2.0886811456       -0.2334778737
 H          3.6111288786       -0.1244006822        0.6890202598
 H          2.4448177914        2.0455239474        0.8450674341
 H          0.1095036887        2.2502692385        0.0773566246
  21
  -25.719716580000000        8.0895452132708587E-002 !mtd2
 N         -2.5653524309       -0.1029161926       -1.2273561906
 C         -2.4980775338        0.3486528218        0.1925746548
 C         -1.4465593868       -0.4058660694        1.0058300788
 C         -0.0455101367       -0.1847037486        0.5179077436
 C          0.6175665226       -1.1593501382       -0.2354553820
 C          1.9161816043       -0.9483561085       -0.6875206896
 C          2.5705978281        0.2428381775       -0.3966300439
 C          1.9239461545        1.2225831775        0.3468331369
 C          0.6252802427        1.0106648441        0.7993645959
 H         -3.2750926188        0.4210492721       -1.7612981306
 H         -2.8098800696       -1.1022221883       -1.2880460793
 H         -1.6581046576        0.0274222397       -1.7042450108
 H         -3.4886656233        0.2328607887        0.6504271404
 H         -2.2831462507        1.4233205845        0.2174384684
 H         -1.6705445086       -1.4770662672        0.9854939609
 H         -1.5018500844       -0.1185063093        2.0616403976
 H          0.1195194999       -2.0882925350       -0.4542966667
 H          2.4192916307       -1.7126215560       -1.2579221039
 H          3.5794366744        0.4041023121       -0.7423467335
 H          2.4318613263        2.1451221100        0.5786120976
 H          0.1311430090        1.7680081223        1.3844393526
  21
  -25.719712550000001        8.0551205982565474E-002 !mtd2
 N         -2.5240822911       -1.0199038278        0.8571268228
 C         -2.4960508093        0.3305704394        0.2244292073
 C         -1.4916539891        0.4280316421       -0.9236519075
 C         -0.0680177898        0.2510771162       -0.4857174998
 C          0.5902826835       -0.9719243969       -0.6521904285
 C          1.9097021333       -1.1319437730       -0.2412830772
 C          2.5902414308       -0.0719422890        0.3462327338
 C          1.9486164005        1.1478091142        0.5230872524
 C          0.6288014473        1.3071979320        0.1121250423
 H         -1.6013679134       -1.2710793990        1.2401077390
 H         -2.7874800157       -1.7448247859        0.1736077859
 H         -3.2061221967       -1.0649892152        1.6332988898
 H         -2.2575974062        1.0799460930        0.9879791701
 H         -3.5048000358        0.5776850032       -0.1305614977
 H         -1.5867662569        1.3938720428       -1.4326220787
 H         -1.7312363952       -0.3231751211       -1.6824569455
 H          0.0715900335       -1.7925813975       -1.1172829902
 H          2.4084082555       -2.0769603532       -0.3854288581
 H          3.6151532643       -0.1940806415        0.6591734981
 H          2.4766771758        1.9734160890        0.9729439842
 H          0.1377454831        2.2569396484        0.2422419109
  21
  -25.719710530000000        8.0379207357475779E-002 !mtd4
 N         -2.5164141575       -0.8695618659        0.9996553213
 C         -2.4991076952        0.3610550139        0.1570174678
 C         -1.4886815867        0.2822907895       -0.9871835486
 C         -0.0675805373        0.1732886539       -0.5197001252
 C          0.6128294940       -1.0484296111       -0.5602838071
 C          1.9300796408       -1.1445763060       -0.1233792927
 C          2.5861999489       -0.0208387467        0.3650190418
 C          1.9226390941        1.1989620213        0.4157822272
 C          0.6053258757        1.2947337443       -0.0220828818
 H         -3.1981068399       -0.7952870221        1.7698037533
 H         -1.5921392068       -1.0465645204        1.4190812992
 H         -2.7713854857       -1.7003542412        0.4403496187
 H         -2.2730275071        1.2264186622        0.7905898843
 H         -3.5081173869        0.5367560589       -0.2375166950
 H         -1.5796407127        1.1592355712       -1.6380615100
 H         -1.7256906401       -0.5759266057       -1.6233876143
 H          0.1131137172       -1.9195860872       -0.9479058117
 H          2.4460618242       -2.0901458809       -0.1705510521
 H          3.6092597572       -0.0942317202        0.6985522026
 H          2.4315851672        2.0732247239        0.7891555820
 H          0.0974856879        2.2440264337        0.0095051410
  21
  -25.719692550000001        7.8864341842237937E-002 !mtd2
 N         -2.5706730801        0.7164389745        1.0085665866
 C         -2.4690638390       -0.5155562275        0.1738786814
 C         -1.4729669156       -0.3724884071       -0.9766465656
 C         -0.0581930405       -0.1770620847       -0.5181982409
 C          0.6948008028       -1.2606650603       -0.0545422736
 C          2.0064207064       -1.0854691519        0.3745115165
 C          2.5844167313        0.1782651841        0.3495406076
 C          1.8482150606        1.2659142061       -0.1042673751
 C          0.5361180201        1.0900813930       -0.5330790268
 H         -2.8875736081        1.5203147164        0.4472268078
 H         -1.6594761242        0.9628983698        1.4214536394
 H         -3.2430121629        0.5978550640        1.7854934206
 H         -3.4649088853       -0.7655256446       -0.2135723106
 H         -2.1781347459       -1.3584578382        0.8115368892
 H         -1.7666464897        0.4706776853       -1.6097878878
 H         -1.5140293295       -1.2520540521       -1.6286165112
 H          0.2539480973       -2.2428471716       -0.0427979905
 H          2.5779096213       -1.9316095917        0.7210838737
 H          3.6032815454        0.3133689598        0.6765767989
 H          2.2975876154        2.2457277176       -0.1313159365
 H         -0.0263777240        1.9342075723       -0.8947673114
  21
  -25.716386150000002        2.3843195046985605E-003 !mtd2
 N         -3.7224967001       -0.0494873626        0.1285445809
 C         -2.2751217018       -0.1353095025        0.4864703477
 C         -1.3542124897        0.1576629958       -0.6945933301
 C          0.1032602169        0.0827133610       -0.3447456202
 C          0.8071697559       -1.1202546313       -0.4631678049
 C          2.1540793993       -1.1933812340       -0.1229886033
 C          2.8164164630       -0.0653167164        0.3467830118
 C          2.1288594886        1.1350880585        0.4779909586
 C          0.7816450916        1.2077913190        0.1374884964
 H         -3.9660304488        0.8909285207       -0.2143804599
 H         -4.3295545548       -0.2514027654        0.9372573396
 H         -3.9636990245       -0.7231146662       -0.6169085546
 H         -2.0574190990       -1.1323879166        0.8863048308
 H         -2.0606518371        0.5628082104        1.3040108804
 H         -1.5789242088        1.1492955715       -1.0998397080
 H         -1.5679951302       -0.5397966353       -1.5102603372
 H          0.2982947042       -1.9961113559       -0.8278676460
 H          2.6862639654       -2.1254360873       -0.2261352260
 H          3.8614592773       -0.1211904178        0.6075536782
 H          2.6410340387        2.0115770310        0.8415292619
 H          0.2524785780        2.1403646999        0.2388168369
  21
  -25.716385890000002        2.3836635955364789E-003 !mtd4
 N         -3.7117606120        0.0537138445       -0.3107864242
 C         -2.2485796907        0.1474760463       -0.5949214253
 C         -1.3866607931       -0.1783564138        0.6215300292
 C          0.0862185663       -0.0931129882        0.3465763842
 C          0.7958024351       -1.2110768222       -0.1042728445
 C          2.1577928290       -1.1282335086       -0.3749850772
 C          2.8300775717        0.0762720334       -0.2045333792
 C          2.1374923872        1.1980246154        0.2347216347
 C          0.7751363944        1.1146621555        0.5054724852
 H         -4.2783568560        0.2762231685       -1.1428277827
 H         -3.9886555928        0.7069112691        0.4363971824
 H         -3.9723010100       -0.8975490368       -0.0028670633
 H         -2.0117876314        1.1547975213       -0.9563520500
 H         -1.9940657524       -0.5283992437       -1.4196411670
 H         -1.6298379072       -1.1809307633        0.9872034493
 H         -1.6413663688        0.4959275940        1.4448983241
 H          0.2792017433       -2.1463929382       -0.2361061681
 H          2.6937626562       -1.9998769261       -0.7149222354
 H          3.8866472856        0.1397571805       -0.4115597826
 H          2.6574194548        2.1332038713        0.3682038168
 H          0.2419641364        1.9858289215        0.8472094097
  21
  -25.716383990000001        2.3788758871697443E-003 !mtd6
 N         -3.7225363680       -0.0592125411        0.1256866472
 C         -2.2753220507       -0.1358696308        0.4862436921
 C         -1.3542040533        0.1651765098       -0.6926495889
 C          0.1032537810        0.0871410017       -0.3434353696
 C          0.8053810339       -1.1163139082       -0.4673865674
 C          2.1523222233       -1.1929972368       -0.1281948832
 C          2.8165101163       -0.0679362364        0.3461258126
 C          2.1307655913        1.1329046164        0.4828507247
 C          0.7834684350        1.2091425229        0.1433800391
 H         -4.3298622651       -0.2649636558        0.9329790100
 H         -3.9573007828       -0.7324772531       -0.6181324249
 H         -3.9722985902        0.8824010925       -0.2187291724
 H         -2.0517688380       -1.1322491002        0.8845887965
 H         -2.0670054901        0.5620645190        1.3055303782
 H         -1.5787167959        1.1595134400       -1.0913457910
 H         -1.5681129095       -0.5268143513       -1.5129251025
 H          0.2951091897       -1.9897972918       -0.8358130067
 H          2.6830438492       -2.1253923049       -0.2357487341
 H          3.8616069553       -0.1265840893        0.6060608060
 H          2.6445183752        2.0069763827        0.8499607546
 H          0.2556551445        2.1419777502        0.2493223320
  21
  -25.716381490000000        2.3725909187538594E-003 !mtd3
 N         -3.7119952378        0.0581303421       -0.3089996084
 C         -2.2489143607        0.1502048680       -0.5941035771
 C         -1.3865872669       -0.1826782537        0.6201422510
 C          0.0862215348       -0.0956987669        0.3453662655
 C          0.7981432366       -1.2134413588       -0.1024003137
 C          2.1602352877       -1.1287766820       -0.3720804670
 C          2.8302813047        0.0773088669       -0.2039128047
 C          2.1353268532        1.1988549617        0.2321099103
 C          0.7729127184        1.1136251268        0.5019659526
 H         -3.9737008920       -0.8913569909       -0.0068490162
 H         -4.2790394941        0.2864039737       -1.1394349303
 H         -3.9875620909        0.7099393875        0.4439030232
 H         -2.0105263728        1.1586824017       -0.9512240733
 H         -1.9964047963       -0.5223939401       -1.4221281266
 H         -1.6297324991       -1.1873055711        0.9801923050
 H         -1.6409884164        0.4868351624        1.4475026591
 H          0.2833614867       -2.1499896409       -0.2326449031
 H          2.6980339377       -2.0002423844       -0.7095953270
 H          3.8868827134        0.1421697232       -0.4103530378
 H          2.6534671004        2.1352737658        0.3638626584
 H          0.2380469964        1.9846651403        0.8413726517
  21
  -25.716377690000002        2.3630695537702247E-003 !mtd5
 N         -3.7224302817       -0.0638988215        0.1244931645
 C         -2.2750495568       -0.1516018088        0.4819805360
 C         -1.3542680379        0.1789943616       -0.6892513249
 C          0.1032431818        0.0948250084       -0.3417019742
 C          0.8013573307       -1.1102024933       -0.4724483056
 C          2.1482421455       -1.1929841360       -0.1344967548
 C          2.8164312163       -0.0725820042        0.3452091814
 C          2.1347080236        1.1297784594        0.4885947802
 C          0.7874403109        1.2121190228        0.1504487600
 H         -3.9582342624       -0.7169038366       -0.6366381332
 H         -3.9706242165        0.8841455999       -0.1937956534
 H         -4.3312564237       -0.2911050105        0.9288529676
 H         -2.0525489933       -1.1582444111        0.8542221658
 H         -2.0653378353        0.5245445768        1.3190048751
 H         -1.5804499055        1.1822661221       -1.0638355278
 H         -1.5667414583       -0.4933302902       -1.5260929730
 H          0.2878758168       -1.9800467370       -0.8449859401
 H          2.6758049209       -2.1265842091       -0.2470258304
 H          3.8614105158       -0.1359901775        0.6044848037
 H          2.6515027895        2.0002698863        0.8599241425
 H          0.2628323179        2.1461634188        0.2615226964
  21
  -25.716375289999998        2.3570757568813676E-003 !mtd4
 N         -3.7118968853        0.0601380053       -0.3087081798
 C         -2.2487267619        0.1494987152       -0.5942324614
 C         -1.3865793490       -0.1834241240        0.6201311380
 C          0.0862700404       -0.0962651938        0.3456162278
 C          0.7985815435       -1.2139560433       -0.1016736692
 C          2.1606183932       -1.1289354641       -0.3715241908
 C          2.8301878311        0.0774927050       -0.2039275466
 C          2.1347854493        1.1990420670        0.2313696388
 C          0.7724297947        1.1134718720        0.5013849400
 H         -3.9854263144        0.7111977730        0.4413743467
 H         -3.9747921306       -0.8887982030       -0.0052598712
 H         -4.2805207410        0.2889539595       -1.1415205892
 H         -2.0088827662        1.1571624857       -0.9526342216
 H         -1.9975514123       -0.5244046682       -1.4215973161
 H         -1.6297662568       -1.1880745366        0.9800934515
 H         -1.6410756494        0.4861853269        1.4473867827
 H          0.2839503471       -2.1505780132       -0.2319677544
 H          2.6987741790       -2.0003449827       -0.7086154558
 H          3.8868064537        0.1427455880       -0.4101574085
 H          2.6524486305        2.1358335954        0.3623493823
 H          0.2371305829        1.9843873986        0.8404249882
  21
  -25.714008960000001        1.9270082263501026E-004 !mtd2
 N         -3.0143700225       -1.1407771062       -0.4761471238
 C         -2.4525084318        0.2435142018       -0.4430591539
 C         -1.4602820012        0.4675034848        0.7106449669
 C         -0.0100651543        0.2927322950        0.3515435838
 C          0.4194955958       -0.6997752442       -0.5349666703
 C          1.7685931638       -0.8635860912       -0.8307564644
 C          2.7167871221       -0.0395590920       -0.2368052287
 C          2.3113881232        0.9455896236        0.6547840353
 C          0.9608742164        1.1073218229        0.9484757206
 H         -3.5638968679       -1.3338822609        0.3737466981
 H         -2.2799821833       -1.8600954669       -0.5309121308
 H         -3.6448147049       -1.2781069912       -1.2843554289
 H         -3.2919733351        0.9472088255       -0.3659778363
 H         -1.9700309228        0.4762676502       -1.3996796716
 H         -1.7047679527       -0.2091939108        1.5354915276
 H         -1.5919177775        1.4762327320        1.1179529431
 H         -0.3039396575       -1.3433545295       -1.0000283886
 H          2.0807464262       -1.6315375340       -1.5201934496
 H          3.7633635388       -0.1658678669       -0.4649575119
 H          3.0447533729        1.5838197247        1.1214858316
 H          0.6552250978        1.8677680194        1.6476109474
  21
  -25.713976840000001        1.8626113227841675E-004 !mtd6
 N         -3.0451063837       -0.6816077551       -0.9675856818
 C         -2.4185997258       -0.5088823434        0.3780457971
 C         -1.4676780632        0.6980594994        0.4536548031
 C         -0.0115512704        0.3762893837        0.2580456545
 C          0.4186076158       -0.5478013366       -0.6991503586
 C          1.7715476818       -0.8096017157       -0.8873861934
 C          2.7224811147       -0.1433909150       -0.1239942594
 C          2.3159078053        0.7859992971        0.8251072367
 C          0.9616043591        1.0454439655        1.0116411855
 H         -3.6484684136       -1.5169977699       -1.0021464557
 H         -2.3445988850       -0.7752858036       -1.7161099476
 H         -3.6368701205        0.1315294790       -1.2054834556
 H         -1.8837554205       -1.4224312648        0.6629624952
 H         -3.2253511867       -0.4058910758        1.1161069836
 H         -1.5811678554        1.1960122153        1.4234465474
 H         -1.7684857243        1.4442379908       -0.2881158230
 H         -0.3072988819       -1.0676440852       -1.2964223391
 H          2.0845102370       -1.5286671377       -1.6273381562
 H          3.7720423644       -0.3447470508       -0.2696912992
 H          3.0512764136        1.3088463177        1.4157123608
 H          0.6547929929        1.7743986857        1.7430671634
  21
  -25.713976540000001        1.8620201149231530E-004 !mtd5
 N         -3.0773650734        1.0518530975       -0.3173941929
 C         -2.4307168767        0.0499291267        0.5830866574
 C         -1.4378844067       -0.8701868634       -0.1479477223
 C          0.0043143551       -0.4529236710       -0.0576614222
 C          1.0072877103       -1.4214707114        0.0710914652
 C          2.3495889518       -1.0602477452        0.1255814044
 C          2.7147256721        0.2780436986        0.0453231151
 C          1.7341313831        1.2524146379       -0.0925262558
 C          0.3925364593        0.8881811105       -0.1471490370
 H         -2.3886056629        1.6411240093       -0.8050729317
 H         -3.7089180956        1.6796219529        0.2027523479
 H         -3.6441172212        0.5827871774       -1.0431605080
 H         -3.2251515683       -0.5437537378        1.0545282054
 H         -1.9246782726        0.5607565454        1.4108208431
 H         -1.7200661342       -0.9432395058       -1.2029970193
 H         -1.5245052244       -1.8900801048        0.2432482775
 H          0.7334595015       -2.4615176962        0.1246957154
 H          3.1083520616       -1.8196681716        0.2275467579
 H          3.7552900381        0.5588109738        0.0869687824
 H          2.0147187633        2.2913996580       -0.1590221879
 H         -0.3573571331        1.6502705499       -0.2555091926
  21
  -25.713610360000001        1.2638621037014002E-004 !mtd4
 N         -3.7558892259       -0.2255490274       -0.1838294352
 C         -2.3083485333       -0.5675285978       -0.3236065346
 C         -1.3908075320        0.5236185513        0.2247395513
 C          0.0880420232        0.2592637435        0.1281865964
 C          0.6216113492       -0.9016374026       -0.4448057233
 C          1.9973298287       -1.0988433017       -0.5127098981
 C          2.8665479621       -0.1388730504       -0.0092996804
 C          2.3561835685        1.0194288687        0.5624884999
 C          0.9803532746        1.2150452879        0.6296524281
 H         -4.0117143747       -0.0853046760        0.8042392301
 H         -4.3633146680       -0.9699372112       -0.5583534265
 H         -3.9844309795        0.6455937792       -0.6904038070
 H         -2.0833210427       -0.7463049451       -1.3811313897
 H         -2.1119909514       -1.5136227888        0.1938221854
 H         -1.6434509187        0.7041657562        1.2744673862
 H         -1.6100626490        1.4637646954       -0.2908325463
 H         -0.0355941269       -1.6557420715       -0.8399992617
 H          2.3912922330       -1.9987787249       -0.9571741295
 H          3.9328214481       -0.2922589923       -0.0624847634
 H          3.0271071807        1.7672808661        0.9542184819
 H          0.5902382685        2.1157044495        1.0737231021
  21
  -25.713604799999999        1.2564479232735391E-004 !mtd3
 N         -3.7557240857       -0.2222766334       -0.1904008080
 C         -2.3081344460       -0.5622948271       -0.3337855338
 C         -1.3911028626        0.5157943414        0.2406762023
 C          0.0878968839        0.2561465022        0.1342191512
 C          0.6215422643       -0.9039248725       -0.4403266239
 C          1.9973932614       -1.0980770143       -0.5141317915
 C          2.8666699920       -0.1360254317       -0.0148223387
 C          2.3562371858        1.0213069272        0.5588851838
 C          0.9802630826        1.2138218393        0.6320033375
 H         -3.9812757717        0.6581214509       -0.6756076516
 H         -4.0142591592       -0.1049135879        0.8001375087
 H         -4.3644801291       -0.9591440786       -0.5850641101
 H         -2.0801567443       -0.7180524237       -1.3943216692
 H         -2.1142483919       -1.5196744243        0.1633121938
 H         -1.6419533994        0.6698515582        1.2950413973
 H         -1.6126512630        1.4680981825       -0.2510377940
 H         -0.0356428657       -1.6597831569       -0.8322100734
 H          2.3914224138       -1.9975078111       -0.9595624151
 H          3.9330459430       -0.2871805619       -0.0721585167
 H          3.0271488021        1.7705279252        0.9479769478
 H          0.5900818132        2.1131506498        1.0787100392
