28
 energy: -40.299388804534 gnorm: 0.000902668841 xtb: 6.5.1 (fef0646)
N            1.29458200898148        0.47974528896469        0.23335922866183
C            2.70533096009183        0.08072169281971        0.15556958727523
C            3.60885729870454        0.93305985036937        1.05321577761171
C            3.14199112532308        0.13505999655797       -1.29087423995197
C            3.46000861901591       -1.05756901963496       -1.96652295523258
C            3.83825842832934       -1.04110839282999       -3.27835004123109
C            3.21212696869537        1.32527892902997       -1.96750385161291
C            3.60000338768195        1.37928264765799       -3.32061812474257
C            3.91988012367589        0.17134216200829       -3.99289132471866
C            4.30348165270987        0.22499530902913       -5.34875744062374
C            4.36880259937488        1.41980210068743       -6.00902263250485
C            4.05440671387365        2.61517994657431       -5.34352025393739
C            3.67835553177414        2.59599595781353       -4.02992559640950
Cl          -0.22611442235869       -1.33529608276845       -1.49029884223354
H            0.47334068634436       -0.48333628743323       -0.67603490201234
H            1.16961431897342        1.42533144641922       -0.11203225663330
H            0.95127004423435        0.42928415104347        1.18607540927921
H            2.75051016583934       -0.95871995613690        0.49841536515448
H            3.54941058391363        1.98382549146405        0.77844420727290
H            4.64188474250892        0.61142076958598        0.95269361601456
H            3.31350560675974        0.82956945222627        2.09604878089642
H            3.39202512857203       -1.99430635429824       -1.43383804483070
H            4.07500888640066       -1.96245651762155       -3.79062945889440
H            2.96903566735027        2.25797981341930       -1.47630736825493
H            4.54337599188563       -0.69846194127038       -5.85630345013750
H            4.66194761102163        1.45373366037099       -7.04811938726378
H            4.11135123470779        3.55102587170406       -5.88021000617200
H            3.43481833561527        3.51560001424854       -3.51613179476731
