35
 energy: -50.234689975501 gnorm: 0.000983721798 xtb: 6.5.1 (fef0646)
N            2.89211815661551       -1.30521077432781       -1.85143333463591
C            2.47808198858600       -0.56668676559985       -0.63361666767238
C            3.05087582130538       -1.24633187128601        0.60967751468252
C            4.55503346254471       -1.17855871547410        0.62750062126252
C            5.20207194867107       -0.00086364426280        0.98911005809833
C            6.57938624892286        0.07946318062674        0.99476366622954
C            7.36242156773580       -1.02065929069754        0.63276581904650
C            8.81372158613457       -0.99816211037150        0.63675648892811
C            9.58351504583920       -0.08041949550655        1.23774477505516
C           11.03481565534111       -0.07824110750984        1.26656189153781
C           11.80847316941624       -0.86436152626728        0.40884245186878
C           13.18080156460311       -0.81131043609851        0.50718397635071
F           13.92241251761728       -1.58562066021515       -0.34464365192054
C           13.84175266578925       -0.01319267578099        1.42074200964165
C           13.07333405353545        0.77095264925985        2.26663393493808
C           11.69474947997109        0.74299836706759        2.18655564264373
C            6.70703408796502       -2.19546510762834        0.25526361667392
C            5.32793210593681       -2.27345158597947        0.25533495110910
H            2.57872517658645       -0.82266330723309       -2.70091898398801
H            2.49693048673837       -2.25269369778291       -1.84380764120289
H            3.91677643557974       -1.38522229841454       -1.87196954587860
H            1.39045186527272       -0.54724044638277       -0.57820196776031
H            2.84817097330562        0.45641148641394       -0.69480853075381
H            2.72699575963916       -2.28619400125373        0.65218312538224
H            2.65904642420091       -0.73992613839599        1.49132528457354
H            4.62173349841797        0.86127927495998        1.28215791308839
H            7.05434971935099        1.00636654326850        1.27457789366264
H            9.28097136347498       -1.83501648777890        0.13484674116167
H            9.12600666766417        0.72402312499441        1.79647467362213
H           11.36274482993026       -1.50039349672789       -0.33779929113114
H           14.91869166525810       -0.00951254222336        1.45767603561312
H           13.56087226966695        1.40686782041293        2.98845901724894
H           11.11270801412670        1.36020382382525        2.85399912733531
H            7.29323011180580       -3.05813912834863       -0.02678312396549
H            4.85616361245573       -3.20729895928380       -0.01266449084790
