24
 energy: -28.480987224153 gnorm: 0.000307086240 xtb: 6.5.1 (fef0646)
N            1.09928229892731       -0.46862296081684       -0.06004776501887
C            2.55748938239016       -0.35320435771873       -0.05843610333593
C            3.06718356303278       -0.17380282372695        1.36811519698255
C            4.58020514754172        0.02378327469878        1.40660892858149
C            5.09283807460353        0.22666188505845        2.83019131933374
C            6.60965172457865        0.39612938224983        2.87380118294232
C            7.11325960514278        0.64471053270905        4.29014869903975
Cl          -0.10955905651513        1.95124659038719        1.06702426291181
H            0.73884051528704       -0.57781057139592       -1.00148647838366
H            0.46933750246561        0.82000328936971        0.54399220174002
H            0.80134818108335       -1.26153934480212        0.49895278076527
H            2.81651029664466        0.52554285000956       -0.65354721082532
H            3.04003986547882       -1.22929819978967       -0.51563181850251
H            2.80027189945066       -1.05259045442813        1.96023684305291
H            2.57048327793259        0.69054195011856        1.80951537227087
H            4.84414434377934        0.89423283174998        0.80227769019203
H            5.07330061840223       -0.84627759534913        0.96529195648252
H            4.80862580676544       -0.63124340253209        3.44405950044218
H            4.61812428443588        1.11129199702450        3.25953727512372
H            6.89630657657745        1.23451104307520        2.23499419160335
H            7.08435144078987       -0.50225772972751        2.47211286003565
H            6.67609356250441        1.55461024675036        4.69518295765006
H            8.19560147212626        0.75044893659584        4.29909520958820
H            6.84366961657524       -0.18315736951020        4.94238094732834
