  22
        -34.97295503
 N         -1.8966873324       -1.2439713351       -1.3939998905
 C         -1.5931465518       -2.2194798449       -0.3085269869
 C         -0.9572931684       -1.5493318347        0.9074427063
 C          0.2951130691       -0.7969434622        0.5713853657
 C          1.5186220969       -1.4456737227        0.5092595588
 C          2.6641127892       -0.7559331356        0.1712614918
 C          2.6110291133        0.5954642791       -0.1180924774
 F          3.7420081404        1.2756831257       -0.4507138628
 C          1.3909811823        1.2447606315       -0.0666030425
 C          0.2459038935        0.5557015174        0.2715136443
 Cl        -3.1797940682        1.6371810648        0.1865879385
 H         -2.4491748573       -1.6632081306       -2.1539718810
 H         -1.0294832436       -0.8698793045       -1.8015227402
 H         -2.4234382931       -0.4392999072       -1.0152940721
 H         -0.9244314620       -2.9960685494       -0.6972936650
 H         -2.5129709959       -2.7395362236       -0.0146987876
 H         -0.7360163660       -2.2900360074        1.6842759686
 H         -1.6748524042       -0.8576766977        1.3610181105
 H          1.5667238802       -2.4989606558        0.7270676603
 H          3.6151923290       -1.2564556966        0.1253121171
 H          1.3544572885        2.2946920101       -0.2980082072
 H         -0.7036520017        1.0635542453        0.2973045702
  22
        -34.97287530
 N         -1.8273267389       -1.5298920855        1.1758228301
 C         -1.5873935412       -2.2417312320       -0.1114147992
 C         -1.0102323767       -1.3173867776       -1.1810237309
 C          0.2614245716       -0.6503988901       -0.7503186075
 C          0.2355848850        0.6075627698       -0.1682137470
 C          1.3997891537        1.2116679259        0.2562335931
 C          2.6157171867        0.5680765904        0.1152954947
 F          3.7651835390        1.1638552562        0.5350327202
 C          2.6457303210       -0.6913646826       -0.4555579777
 C          1.4814222586       -1.2955227905       -0.8813460659
 Cl        -3.1757666606        1.6232126339        0.3443436081
 H         -2.3317072181       -2.1122155126        1.8579631084
 H         -2.3750271334       -0.6719787334        1.0131174115
 H         -0.9347412244       -1.2396172536        1.6036161712
 H         -2.5245977603       -2.6890824211       -0.4643468512
 H         -0.9043338782       -3.0810921489        0.0622357136
 H         -1.7460666182       -0.5469846932       -1.4348648238
 H         -0.8321466677       -1.8680030569       -2.1114658291
 H         -0.7104539111        1.1063479545       -0.0406237710
 H          1.3817011223        2.1887280398        0.7058848881
 H          3.5940330448       -1.1888355626       -0.5580586239
 H          1.5115651993       -2.2787931793       -1.3191279101
  22
        -34.97276517
 N         -2.7943784282       -1.1291227353       -0.3919044391
 C         -2.0509183828       -2.3125935305        0.1245984570
 C         -0.6950788806       -2.4929306115       -0.5540239700
 C          0.2281641741       -1.3293025152       -0.3465439747
 C          0.8212080987       -1.1115943117        0.8874167404
 C          1.6634703765       -0.0375681675        1.0849782781
 C          1.9302646181        0.8446370102        0.0540111786
 F          2.7556845276        1.9086812460        0.2513783798
 C          1.3385575733        0.6341894003       -1.1781103460
 C          0.4947030334       -0.4384928888       -1.3756356524
 Cl        -1.3460053348        1.9618052743        0.5403114948
 H         -3.7303707822       -1.0504456617        0.0281219663
 H         -2.9088138302       -1.1843631585       -1.4123490322
 H         -2.2858252111       -0.2532956520       -0.1826111625
 H         -2.6629660452       -3.2130374090       -0.0087920394
 H         -1.9110164438       -2.2075533616        1.2064745742
 H         -0.8424232324       -2.6477118290       -1.6278502891
 H         -0.2037691231       -3.4034788280       -0.1928577882
 H          0.6184778093       -1.7938817556        1.6951902891
 H          2.1246207192        0.1326506343        2.0418122241
 H          1.5474680706        1.3249662847       -1.9758440544
 H          0.0362126012       -0.5921726785       -2.3375558824
  22
        -34.97267749
 N         -2.6298530179       -1.4303115023       -0.5461478870
 C         -2.3328115383       -1.8442741204        0.8540260123
 C         -0.8780553661       -2.2683959425        1.0420019176
 C          0.0995434799       -1.1688875496        0.7506888915
 C          0.8647063101       -1.1824043893       -0.4059665249
 C          1.7563870040       -0.1647065984       -0.6726955832
 C          1.8990983359        0.8926402567        0.2070757476
 F          2.7733204924        1.9009186861       -0.0604848918
 C          1.1346052702        0.9135436580        1.3592921212
 C          0.2445327124       -0.1050380345        1.6276597249
 Cl        -1.0781329801        1.6116351001       -1.4884584342
 H         -2.0843939909       -0.5949561859       -0.8069500781
 H         -3.6248242825       -1.2023784309       -0.6757753453
 H         -2.3866933243       -2.1800671374       -1.2110918378
 H         -3.0049335547       -2.6620775131        1.1414899779
 H         -2.5668318246       -1.0166651487        1.5332556630
 H         -0.6608620535       -3.1236799367        0.3938728414
 H         -0.7124678749       -2.6276162116        2.0639984435
 H          0.7582897526       -1.9994711713       -1.0987627724
 H          2.3516880845       -0.1743022282       -1.5686278975
 H          1.2479989228        1.7397253932        2.0388348877
 H         -0.3466194220       -0.0818106289        2.5272817233
  22
        -34.97163380
 N         -2.7608612639       -1.8781435573       -0.4626021146
 C         -1.3196205527       -1.5227771428       -0.5998989567
 C         -0.8253731260       -0.6536817180        0.5507868747
 C          0.6160150142       -0.2629579092        0.4078792492
 C          0.9722911203        0.8875075875       -0.2792707009
 C          2.2986042581        1.2300350717       -0.4391868083
 C          3.2986110399        0.4274953080        0.0789913592
 F          4.6074032736        0.7678083857       -0.0756622179
 C          2.9485660276       -0.7261478595        0.7567850838
 C          1.6225391697       -1.0693641483        0.9170566500
 Cl        -4.4702557827        1.1851113082       -0.2366779679
 H         -2.9272178540       -2.4133966120        0.3988820127
 H         -3.0979530571       -2.4381261183       -1.2565489717
 H         -3.3358845871       -1.0206763447       -0.4103332203
 H         -1.1567908786       -0.9997519274       -1.5494168462
 H         -0.7147337687       -2.4346247856       -0.6618291292
 H         -0.9696084287       -1.1779596509        1.5010498874
 H         -1.4416782763        0.2482579248        0.6238011543
 H          0.1996096672        1.5138218534       -0.6914663913
 H          2.5768365523        2.1234489244       -0.9698253415
 H          3.7307114634       -1.3490766746        1.1535829130
 H          1.3582787690       -1.9725537078        1.4403324599
  22
        -34.97154841
 N         -2.7485281990       -1.9198052715        0.3369925503
 C         -1.3467144585       -1.4915235438        0.6084417399
 C         -0.7327789550       -0.7410977768       -0.5678874171
 C          0.6696711584       -0.2820026157       -0.2975601296
 C          1.7508766369       -1.1012974951       -0.5845189098
 C          3.0379675708       -0.6922972164       -0.3050854739
 C          3.2727697063        0.5417642809        0.2732927758
 F          4.5429162243        0.9438711438        0.5515046724
 C          2.1971024907        1.3592347778        0.5690195189
 C          0.9097523826        0.9508926352        0.2899478337
 Cl        -4.4975089638        1.0308450988       -0.4482075745
 H         -2.7886934852       -2.5544491363       -0.4703700255
 H         -3.3337337573       -1.1006535979        0.1154709280
 H         -3.1699862723       -2.4022543494        1.1451125040
 H         -0.7307141550       -2.3644939002        0.8531026829
 H         -1.3205076722       -0.8566219301        1.5015596322
 H         -1.3563766749        0.1224971685       -0.8216579762
 H         -0.7442038615       -1.3755200340       -1.4598700271
 H          1.5757343906       -2.0666025634       -1.0280540125
 H          3.8782147489       -1.3254993648       -0.5292448046
 H          2.3858961900        2.3165555887        1.0220641996
 H          0.0767905550        1.5896661031        0.5299103247
  22
        -34.97117976
 N         -1.8577686339       -0.4527536923        0.7050798401
 C         -1.6089436865       -1.2161934208       -0.5494052413
 C         -0.3048141730       -2.0079363664       -0.4960378612
 C          0.8996224436       -1.1288692581       -0.3351174909
 C          1.5158459022       -0.9818338673        0.8985260899
 C          2.6037352697       -0.1473938141        1.0475226859
 C          3.0976719809        0.5621916490       -0.0317313130
 F          4.1717626997        1.3849414764        0.1154285692
 C          2.4830252214        0.4237956719       -1.2627818273
 C          1.3954366033       -0.4107566762       -1.4124757106
 Cl        -4.8514691812        1.3726101785        0.4099069463
 H         -1.0893853731        0.2056496199        0.8906357780
 H         -1.9270630605       -1.0850972897        1.5135658697
 H         -2.7357958827        0.0939176121        0.6534759011
 H         -1.5813894856       -0.5208698570       -1.3962929141
 H         -2.4559010764       -1.8856563908       -0.7426429601
 H         -0.1852595414       -2.6143876662       -1.4010842602
 H         -0.3432109316       -2.7225556818        0.3322441302
 H          1.1363360284       -1.5276173506        1.7453273927
 H          3.0844189087       -0.0337107719        2.0031549869
 H          2.8693901128        0.9812111081       -2.0978147571
 H          0.9197704278       -0.5101964806       -2.3733406340
  22
        -34.97109616
 N         -1.9857502717        0.1067296597        0.4139123182
 C         -1.5770922147       -1.3224796783        0.3188992989
 C         -0.3876389280       -1.6455553119        1.2196159055
 C          0.8431713598       -0.8710611423        0.8528810470
 C          1.6043914448       -1.2383575228       -0.2461155462
 C          2.7184216695       -0.5099780910       -0.6071718470
 C          3.0943988671        0.6047294881        0.1196945920
 F          4.1930112190        1.3243093960       -0.2375652303
 C          2.3356251658        0.9785207495        1.2138022913
 C          1.2216288434        0.2504970273        1.5754086462
 Cl        -4.7172289299        0.7125225435       -1.7285188446
 H         -1.2095268190        0.7272201858        0.1476737818
 H         -2.2606173908        0.3480873360        1.3754514017
 H         -2.7867903522        0.3188917194       -0.2071836420
 H         -1.3240986578       -1.5578041001       -0.7213162663
 H         -2.4314419282       -1.9632317530        0.5685793138
 H         -0.1583764428       -2.7167426958        1.1852716364
 H         -0.6490485983       -1.4353703846        2.2616060903
 H          1.3154506849       -2.1024174100       -0.8198140173
 H          3.3110459055       -0.7947174667       -1.4585970850
 H          2.6314045052        1.8479932809        1.7739690039
 H          0.6350864831        0.5513799256        2.4266570291
  22
        -34.97039072
 N         -2.7940058222       -1.1461740892        0.3330863347
 C         -1.4573403705       -0.5244416122        0.1109915386
 C         -0.3441858686       -1.2510750980        0.8568952373
 C          1.0028590206       -0.6248715833        0.6457796827
 C          1.8102050253       -1.0199841452       -0.4100769147
 C          3.0344495384       -0.4215920144       -0.6227504401
 C          3.4763548004        0.5892818367        0.2111465925
 F          4.6854434169        1.1782184576        0.0021706364
 C          2.6706137293        0.9934718572        1.2600064386
 C          1.4464136635        0.3954791719        1.4733879377
 Cl        -5.2364165520        0.6657136677       -1.4630758063
 H         -3.0411284279       -1.1390977570        1.3308914704
 H         -2.8017446177       -2.1243274474        0.0169009152
 H         -3.5380060635       -0.6420986431       -0.1802035056
 H         -1.4824298161        0.5268301057        0.4205631617
 H         -1.2309356009       -0.5059679426       -0.9612945140
 H         -0.3118185867       -2.3000459156        0.5449234880
 H         -0.5703872460       -1.2762250820        1.9276316211
 H          1.4700722656       -1.8014523182       -1.0679563187
 H          3.6636440938       -0.7287655036       -1.4394408942
 H          3.0176377292        1.7833467471        1.9025959318
 H          0.8218039099        0.7205376613        2.2880134335
  22
        -34.96981776
 N         -2.7498613358       -1.9213937831       -0.6094500221
 C         -1.3138749176       -1.7127166330       -0.2658462824
 C         -0.8175393703       -0.3320203499       -0.6858104311
 C          0.6357863935       -0.0479106996       -0.4158162588
 C          1.4598266403       -0.9224691386        0.2792752309
 C          2.7850565292       -0.6157061293        0.5083221276
 C          3.3213664326        0.5739656674        0.0522787764
 F          4.6277810094        0.8776005627        0.2832823200
 C          2.5070824584        1.4519272941       -0.6384297557
 C          1.1825467354        1.1445548335       -0.8675955333
 Cl        -4.5390924551        0.6983505802        0.9105422654
 H         -3.0928281946       -2.8389285063       -0.2963880472
 H         -2.8984023613       -1.8552125237       -1.6243474682
 H         -3.3339073779       -1.1939452975       -0.1639893867
 H         -0.7057401814       -2.4886763719       -0.7446530423
 H         -1.1751868853       -1.8445916990        0.8132733251
 H         -1.4225320398        0.4335470522       -0.1884907034
 H         -1.0064364158       -0.1966402866       -1.7557666091
 H          1.0640030374       -1.8532411527        0.6457538758
 H          3.4228820086       -1.2953442835        1.0455331455
 H          2.9273626623        2.3772924311       -0.9909907126
 H          0.5556595232        1.8365250868       -1.4042331952
  22
        -34.96866580
 N         -2.8363753961       -1.4997729704       -0.6304459767
 C         -1.5833039444       -2.3000514066       -0.5116488630
 C         -0.7892681169       -1.9736219310        0.7631193588
 C          0.3681160590       -1.0482274269        0.5197542783
 C          1.6647867513       -1.5383345294        0.4657833291
 C          2.7289542086       -0.6949558323        0.2242959790
 C          2.5219435373        0.6576561645        0.0257630557
 F          3.5718052782        1.4902529250       -0.2129631245
 C          1.2306789774        1.1502089639        0.0697533176
 C          0.1670848986        0.3063219199        0.3104131221
 Cl        -2.6946480966        2.0516164769       -0.2658349442
 H         -3.4822142534       -1.7199077548        0.1386780467
 H         -3.3276344416       -1.6861024217       -1.5148110484
 H         -2.6471590338       -0.4848409674       -0.5849671967
 H         -0.9488562732       -2.1317420591       -1.3899422599
 H         -1.8424813573       -3.3659361793       -0.5427908084
 H         -0.4136422221       -2.8922736297        1.2286973968
 H         -1.4565352304       -1.5288368380        1.5082162745
 H          1.8360002397       -2.5910218976        0.6132094304
 H          3.7348523897       -1.0742112220        0.1846873805
 H          1.0738734070        2.2022123042       -0.0912754490
 H         -0.8348395309        0.6981889113        0.3250180096
  22
        -34.96843853
 N         -2.7865420403       -1.5187693380       -0.6392121536
 C         -1.5460287036       -2.3451870902       -0.5856229369
 C         -0.7093745960       -2.0813658405        0.6748217627
 C          0.4013291684       -1.0952194691        0.4537356507
 C          0.1463980130        0.2642682374        0.3788804894
 C          1.1670742440        1.1644329610        0.1562592170
 C          2.4684007839        0.7252300228       -0.0026986875
 F          3.4762879158        1.6136213963       -0.2204877238
 C          2.7289083697       -0.6311905732        0.0615139984
 C          1.7075490114       -1.5307916651        0.2842629656
 Cl        -2.6924807691        2.0337770043       -0.0913276833
 H         -3.3049384176       -1.6632888032       -1.5157744988
 H         -2.5802052975       -0.5123862758       -0.5610323390
 H         -3.4169445991       -1.7579272193        0.1409087256
 H         -0.9336149540       -2.1582967074       -1.4756052829
 H         -1.8285982747       -3.4039120200       -0.6451994015
 H         -0.2783410299       -3.0160260862        1.0522285480
 H         -1.3588318661       -1.7210247083        1.4788295489
 H         -0.8643804107        0.6168500910        0.4835293886
 H          0.9678823993        2.2199342401        0.0982059391
 H          3.7423612456       -0.9684000872       -0.0668350321
 H          1.9200902725       -2.5854830557        0.3266934188
  22
        -34.96493719
 N         -2.1977537623       -1.3935413580       -1.6426189012
 C         -2.1266200918       -1.8251232962       -0.2181980536
 C         -0.7363034824       -2.3234290337        0.1689073527
 C          0.3114893015       -1.2551417462        0.0693115460
 C          0.4598385088       -0.3183644060        1.0804797203
 C          1.3975894244        0.6875604285        0.9778277871
 C          2.2056074588        0.7825972823       -0.1403315958
 F          3.1286280414        1.7775828934       -0.2433943752
 C          2.0592096907       -0.1470621742       -1.1536835423
 C          1.1218667296       -1.1533927916       -1.0512627312
 Cl        -2.1688739909        1.8840347847        1.0130937920
 H         -1.9603343660       -2.1705817774       -2.2720995381
 H         -1.5291019934       -0.6340210750       -1.8241022071
 H         -3.1380664486       -1.0549484805       -1.8969831055
 H         -2.8758400549       -2.6053069810       -0.0365609630
 H         -2.4081633855       -0.9868934629        0.4293265151
 H         -0.4557482133       -3.1646969264       -0.4730899277
 H         -0.7415789938       -2.7229224278        1.1892873123
 H         -0.1703701923       -0.3817577420        1.9511491753
 H          1.5141761660        1.4144042062        1.7622275986
 H          2.6895234951       -0.0676024527       -2.0217891154
 H          1.0128889587       -1.8707920049       -1.8466649821
  22
        -34.96478013
 N         -2.5451793844       -0.6974028389        1.5882364336
 C         -2.2060765371       -1.6480734141        0.4920707153
 C         -0.7917982310       -2.2078001888        0.6251127155
 C          0.2638937753       -1.1479530746        0.5193738193
 C          0.6520520580       -0.6626103286       -0.7198755955
 C          1.5965362981        0.3370532376       -0.8214527513
 C          2.1719225791        0.8771705974        0.3140916079
 F          3.1029384120        1.8649976302        0.2141230911
 C          1.7854373357        0.3994270799        1.5530494390
 C          0.8410775871       -0.6003367500        1.6550541862
 Cl        -1.8474142193        1.1703977133       -2.2152515153
 H         -1.8920486405        0.0963522757        1.5934609520
 H         -2.4783237668       -1.1579911735        2.5046406253
 H         -3.5002767215       -0.3208585360        1.4908915995
 H         -2.3089818777       -1.1397534818       -0.4735215930
 H         -2.9391885339       -2.4636223895        0.4778199166
 H         -0.6072513301       -2.9716301272       -0.1389320328
 H         -0.6898599406       -2.7238172920        1.5850631297
 H          0.2039955823       -1.0738615948       -1.6083276679
 H          1.8988974687        0.7139072061       -1.7825722726
 H          2.2350576405        0.8243701591        2.4331022789
 H          0.5443888871       -0.9638771863        2.6240832482
  22
        -34.96476390
 N         -1.7387885893       -2.1855296709       -1.3058698455
 C         -2.0928099078       -1.7772745725        0.0827873356
 C         -0.9169344271       -1.9167780316        1.0465981793
 C          0.2303070925       -1.0168196411        0.6957458814
 C          1.3333747722       -1.5008398476        0.0088926413
 C          2.3693402660       -0.6605548804       -0.3414388228
 C          2.3250436821        0.6829375107       -0.0165731314
 F          3.3484881081        1.5114602497       -0.3613730342
 C          1.2251202634        1.1714594912        0.6645531548
 C          0.1892195432        0.3315717139        1.0152173833
 Cl        -2.4882801222        2.0755188289       -0.3601809903
 H         -0.9616962910       -1.6159806087       -1.6637561510
 H         -2.5317640725       -2.0794733997       -1.9517965059
 H         -1.4378118856       -3.1708126676       -1.3315478097
 H         -2.9449541104       -2.3734417556        0.4313278181
 H         -2.4402462076       -0.7378934971        0.0781755823
 H         -0.5713054886       -2.9555381151        1.0560084409
 H         -1.2344586390       -1.7043515720        2.0736638414
 H          1.3756853524       -2.5447494715       -0.2507358002
 H          3.2266573337       -1.0347709503       -0.8726222207
 H          1.1943062526        2.2177176190        0.9127038930
 H         -0.6666295825        0.7204883494        1.5402360192
  22
        -34.96374363
 N         -2.3856172143       -2.7668632563        0.9663407877
 C         -1.4376568287       -3.5967703576        0.1705565470
 C         -0.8553013934       -2.8333297604       -1.0164282398
 C         -0.0559257988       -1.6351888786       -0.5983860490
 C          1.2257905142       -1.7860202589       -0.0917169520
 C          1.9528060036       -0.6906011155        0.3249361157
 C          1.4133772367        0.5802745265        0.2482830723
 F          2.1301046188        1.6623744130        0.6586290609
 C          0.1331803246        0.7346960526       -0.2510774068
 C         -0.5943194630       -0.3592047195       -0.6682129038
 Cl        -0.5299437638        4.1377561940       -0.1015500876
 H         -1.9170151747       -1.9240263682        1.3214514407
 H         -2.7648138161       -3.2812531819        1.7718265405
 H         -3.1781139416       -2.4580752252        0.3845367017
 H         -1.9472188996       -4.5054370397       -0.1724378454
 H         -0.6238765400       -3.9401611494        0.8194059018
 H         -1.6653589626       -2.5130066965       -1.6796060862
 H         -0.2221495077       -3.4901765742       -1.6234445800
 H          1.6509445758       -2.7729327003       -0.0248503397
 H          2.9478373043       -0.8060505202        0.7170461564
 H         -0.2820155303        1.7256426048       -0.3048996468
 H         -1.5913014562       -0.2279144528       -1.0528979772
  22
        -34.96368534
 N         -2.1036329259       -2.8216563728       -1.4224775298
 C         -1.1227554962       -3.6582716562       -0.6750983137
 C         -0.6662482496       -2.9958491904        0.6225141202
 C          0.0449872283       -1.6959133392        0.3907098655
 C         -0.6002016795       -0.4845362989        0.5886833195
 C          0.0494283595        0.7062926463        0.3437036413
 C          1.3562735550        0.7157103209       -0.1078988782
 F          1.9956450654        1.8931831219       -0.3481501377
 C          2.0023748892       -0.4897264606       -0.3119555836
 C          1.3536133700       -1.6818179469       -0.0672174619
 Cl        -0.8418201728        4.0503761074        0.5854005170
 H         -2.9420352907       -2.6483668004       -0.8542442386
 H         -2.4015057529       -3.2690827315       -2.2988991293
 H         -1.6940913927       -1.9056163089       -1.6574296081
 H         -0.2526509437       -3.8529741493       -1.3126030195
 H         -1.5642232866       -4.6405689520       -0.4676899524
 H         -0.0077347577       -3.6665543063        1.1861949338
 H         -1.5317242577       -2.8231754020        1.2701168546
 H         -1.6186416187       -0.4802753805        0.9375462219
 H         -0.4479636944        1.6474889307        0.4982478374
 H          3.0180125742       -0.4775552950       -0.6662858361
 H          1.8621305688       -2.6164991958       -0.2321356204
  22
        -34.96363246
 N         -1.3271183906       -2.4659418450       -1.5500791745
 C         -1.9756716341       -1.6921637697       -0.4542360377
 C         -1.0710604301       -1.5489991136        0.7673417347
 C          0.1925981092       -0.7982884671        0.4684469900
 C          1.4050376278       -1.4592839868        0.3423332419
 C          2.5571100034       -0.7649026880        0.0380933903
 C          2.5231082071        0.6047248371       -0.1501350266
 F          3.6600389989        1.2893337235       -0.4523573313
 C          1.3154861563        1.2676596176       -0.0291734791
 C          0.1637725972        0.5736721446        0.2747270882
 Cl        -3.0088305167        1.9976396988        0.5172918213
 H         -0.4524938113       -2.0130974097       -1.8433568887
 H         -1.9347618056       -2.5452644812       -2.3755662534
 H         -1.0918682565       -3.4185130620       -1.2354127056
 H         -2.9204028507       -2.1748927026       -0.1758855645
 H         -2.2495141301       -0.6981266152       -0.8257683759
 H         -0.8189735123       -2.5414036332        1.1548375835
 H         -1.6013217429       -1.0422447303        1.5814943275
 H          1.4412599759       -2.5257657546        0.4846571676
 H          3.4988279054       -1.2757569433       -0.0587872745
 H          1.2937106121        2.3327257046       -0.1788675757
 H         -0.7751869362        1.0944024229        0.3606467883
  22
        -34.96359837
 N         -1.3690478761       -2.3676309098       -1.6767381877
 C         -1.9921688303       -1.6705145748       -0.5164904247
 C         -1.0573709440       -1.6028167083        0.6888489414
 C          0.1990306839       -0.8335896795        0.4068827429
 C          0.1652919960        0.5472467352        0.2945579893
 C          1.3099588028        1.2598517755        0.0073764179
 C          2.5151192771        0.6074305257       -0.1774247272
 F          3.6446264802        1.3104673654       -0.4644758631
 C          2.5541685653       -0.7707811445       -0.0696275178
 C          1.4090938497       -1.4838426775        0.2172152542
 Cl        -2.9779840944        1.9870019371        0.7355131529
 H         -1.9999388991       -2.4029972556       -2.4875748642
 H         -1.1160054508       -3.3323622530       -1.4294620138
 H         -0.5057768157       -1.8859651945       -1.9677958268
 H         -2.9278218354       -2.1751533480       -0.2464621117
 H         -2.2789856107       -0.6558269369       -0.8152161101
 H         -0.7961032831       -2.6171722520        1.0072207328
 H         -1.5671993420       -1.1487249578        1.5460055189
 H         -0.7714022708        1.0606728239        0.4324633199
 H          1.2843869785        2.3317793024       -0.0791001835
 H          3.4940703145       -1.2732131325       -0.2159834443
 H          1.4487171805       -2.5569162037        0.2954826816
  22
        -34.96352546
 N         -2.5453572240       -2.2229703282       -0.5513343519
 C         -2.1480794189       -2.6423607071        0.8222178144
 C         -0.6398450098       -2.8391531222        0.9546656182
 C          0.1337576464       -1.5772668966        0.7122647812
 C          0.7655686532       -1.3498193870       -0.5010652623
 C          1.4506335728       -0.1749664718       -0.7292044082
 C          1.5156881499        0.8013730700        0.2480103850
 F          2.1793290225        1.9672518688        0.0169871564
 C          0.8837881758        0.5813542120        1.4582384566
 C          0.1987352529       -0.5933783242        1.6869620722
 Cl        -0.5965536607        3.0375215461       -1.4825078109
 H         -2.0831478491       -1.3416878454       -0.8077892664
 H         -3.5607174462       -2.0825082430       -0.6320325039
 H         -2.2662858524       -2.9318636340       -1.2453370370
 H         -2.6785670987       -3.5644106090        1.0895108989
 H         -2.4832887676       -1.8877843566        1.5429220058
 H         -0.3070284461       -3.6073912782        0.2492282876
 H         -0.3881826142       -3.2256819326        1.9486788069
 H          0.7172537806       -2.1024051778       -1.2693399997
 H          1.9421388825        0.0023225724       -1.6694977937
 H          0.9357890020        1.3452178353        2.2139561968
 H         -0.2941006330       -0.7556704764        2.6304485199
  22
        -34.96350066
 N         -2.9148506607       -1.7689583673        0.4823506888
 C         -1.9629253909       -2.8643512710        0.1440456453
 C         -0.6869409065       -2.8032723091        0.9802805499
 C          0.0997996572       -1.5476894412        0.7478616230
 C          0.8735580741       -1.4035859132       -0.3934662909
 C          1.5750728781       -0.2395711672       -0.6272116342
 C          1.5150195679        0.8090401064        0.2722719289
 F          2.1975009916        1.9627517512        0.0349085873
 C          0.7410626750        0.6724069952        1.4101554680
 C          0.0397667269       -0.4916080201        1.6446785131
 Cl        -0.4463479390        2.8559473811       -1.7927268907
 H         -2.4764939837       -0.8511362151        0.3358687255
 H         -3.1971223710       -1.8224065190        1.4691043578
 H         -3.7681347989       -1.8076671777       -0.0951114880
 H         -1.7062507920       -2.8056887623       -0.9199480673
 H         -2.4601725127       -3.8329061886        0.2762540290
 H         -0.0473554264       -3.6680487985        0.7697136486
 H         -0.9404859374       -2.8788298865        2.0424226477
 H          0.9213487587       -2.2135531912       -1.1011934605
 H          2.1768203908       -0.1271660771       -1.5117579964
 H          0.6962439826        1.4922768521        2.1051864714
 H         -0.5629062246       -0.5876114369        2.5316769744
  22
        -34.96349872
 N         -2.3521589779       -2.7677093413        1.1055977785
 C         -1.2496294179       -3.6350047981        0.6028140516
 C         -0.5456747606       -3.0321339652       -0.6105017763
 C          0.1071638065       -1.7163786094       -0.3071332044
 C         -0.4854938186       -0.5217334534       -0.6872829491
 C          0.1031248078        0.6852884246       -0.3763319102
 C          1.2945832125        0.7281824177        0.3239253846
 F          1.8731421614        1.9218090432        0.6297917631
 C          1.8872539391       -0.4602016529        0.7093878526
 C          1.2992998017       -1.6685092051        0.3992032514
 Cl        -0.6554895839        4.0230480903       -0.8801831187
 H         -1.9918836756       -1.8415700155        1.3673781269
 H         -2.8135207925       -3.1722307566        1.9305256897
 H         -3.0681494737       -2.6270317110        0.3779234221
 H         -1.6478380149       -4.6276327803        0.3595926180
 H         -0.5212868624       -3.7965574041        1.4057013617
 H         -1.2664352993       -2.8981130914       -1.4236164048
 H          0.2100566851       -3.7234741182       -1.0000097558
 H         -1.4150357929       -0.5433781285       -1.2299137248
 H         -0.3535640836        1.6138471963       -0.6700245209
 H          2.8129426060       -0.4219412971        1.2560783546
 H          1.7645128808       -2.5895902240        0.7067860872
  22
        -34.96345860
 N         -2.8949813849       -1.8356733623        0.3211969812
 C         -1.9115165573       -2.9345701392        0.1071241239
 C         -0.6927563004       -2.8079443200        1.0180214473
 C          0.0931260036       -1.5555346214        0.7660745093
 C          0.9162928834       -1.4533928942       -0.3447982689
 C          1.6195558769       -0.2942617931       -0.5968977315
 C          1.5126773160        0.7907200357        0.2536795589
 F          2.1971443398        1.9391881453       -0.0020863552
 C          0.6897024315        0.6958909700        1.3609755972
 C         -0.0139122777       -0.4629425408        1.6134728791
 Cl        -0.4642942295        2.9581783753       -1.6958160035
 H         -3.2390285081       -1.8375464819        1.2894928822
 H         -3.7068739787       -1.9195210926       -0.3039973703
 H         -2.4572041721       -0.9185762079        0.1499809886
 H         -1.5875840997       -2.9323663950       -0.9399728074
 H         -2.4054908793       -3.9013497798        0.2625757595
 H         -0.0309420834       -3.6732584274        0.8976878615
 H         -1.0136157714       -2.8284011062        2.0643513354
 H          1.0017044246       -2.2925702112       -1.0138853544
 H          2.2586757199       -0.2136685015       -1.4583907689
 H          0.6087486954        1.5442836841        2.0174520367
 H         -0.6545480135       -0.5263586366        2.4764286920
  22
        -34.96350611
 N         -1.1877344151       -2.9136007342       -0.6641880435
 C         -1.9923488042       -1.6683361590       -0.5142451263
 C         -1.4323788000       -0.5128015061       -1.3402232764
 C         -0.0455227702       -0.1198994011       -0.9257611664
 C          0.1624906319        0.5847915532        0.2492614912
 C          1.4361508437        0.9281130870        0.6499911710
 C          2.5323282356        0.5710032118       -0.1136661931
 F          3.7900068713        0.9086835145        0.2823165442
 C          2.3309493363       -0.1366240860       -1.2847128792
 C          1.0569707039       -0.4800579786       -1.6857888804
 Cl        -2.7483418056        1.3004180069        2.0233841955
 H         -1.1643694842       -3.2163952570       -1.6458068342
 H         -1.5677811420       -3.6865935704       -0.1027602999
 H         -0.2141003427       -2.7548227371       -0.3660225529
 H         -2.0229609117       -1.3821261608        0.5433316424
 H         -3.0326656032       -1.8693807449       -0.7972858374
 H         -2.0863862794        0.3637546917       -1.2678349352
 H         -1.4281645960       -0.7880226587       -2.3996578823
 H         -0.6870064970        0.8611235780        0.8508903667
 H          1.5980997322        1.4761304449        1.5613806635
 H          3.1871899599       -0.4146712815       -1.8735921125
 H          0.9104832589       -1.0331016795       -2.5978549740
  22
        -34.96344892
 N         -1.3856988433       -3.6220598365        1.1533241646
 C         -2.0603121609       -3.1343507776       -0.0826107803
 C         -1.0634294701       -2.6923503906       -1.1512146666
 C         -0.2095812835       -1.5421117424       -0.7070083142
 C          1.0962466164       -1.7437942286       -0.2856412629
 C          1.8664264298       -0.6871944210        0.1531283196
 C          1.3477347315        0.5941753367        0.1844878055
 F          2.1060570471        1.6377292776        0.6191352047
 C          0.0448057771        0.7989486312       -0.2307418803
 C         -0.7260333239       -0.2560997555       -0.6695467467
 Cl        -0.4316416196        4.2063589750        0.1700109555
 H         -2.0623531676       -3.9061731811        1.8732283027
 H         -0.7884258797       -2.8874290376        1.5530164035
 H         -0.7833934334       -4.4320254327        0.9457517619
 H         -2.7200898924       -2.2967201015        0.1713425136
 H         -2.7166987587       -3.9208219997       -0.4743580984
 H         -1.5861126240       -2.4126932723       -2.0730519030
 H         -0.4202592239       -3.5351368948       -1.4236894978
 H          1.5075441069       -2.7385106957       -0.3032593467
 H          2.8800344694       -0.8416958002        0.4786193450
 H         -0.3527786607        1.7980319536       -0.2015211802
 H         -1.7412729729       -0.0878200940       -0.9863911506
