  22
        -34.88821668
 N          1.8701760271       -1.2051241340       -1.3889028348
 C          1.5866377952       -2.2083703022       -0.3258115897
 C          0.9481823812       -1.5701323624        0.9049534046
 C         -0.3005988386       -0.8067045513        0.5791062996
 C         -0.2446158845        0.5525851854        0.3040327140
 C         -1.3851824976        1.2501235964       -0.0354178906
 C         -2.6050746591        0.6034925597       -0.1138384981
 F         -3.7251208696        1.2884845522       -0.4521463398
 C         -2.6658056105       -0.7525817978        0.1503250487
 C         -1.5254641838       -1.4520658159        0.4897937175
 Cl         3.1902825224        1.6162654796        0.1810509453
 H          2.4106546902       -1.6023757805       -2.1747264677
 H          2.4033211853       -0.4046572203       -1.0006396386
 H          0.9937949273       -0.8207909993       -1.7736621748
 H          2.5143561721       -2.7240351431       -0.0482688245
 H          0.9242682393       -2.9837355034       -0.7292225478
 H          1.6651186726       -0.8903485909        1.3793964902
 H          0.7215405009       -2.3305126727        1.6616941881
 H          0.7067624768        1.0576307801        0.3458710029
 H         -1.3459792140        2.3046167377       -0.2484035129
 H         -3.6190125455       -1.2483063274        0.0826113899
 H         -1.5781938788       -2.5102094710        0.6857252799
