22
 energy: -34.754855107422 gnorm: 0.000626658044 xtb: 6.5.1 (fef0646)
N            1.14999948884582        0.39403422142147        0.18834434030461
C            2.60555631185044        0.50346282562864        0.12410391464300
C            3.06779139093921        0.46650357708520       -1.33635936840921
C            4.56646796585884        0.40734547960783       -1.40762163018288
C            5.22309790555568       -0.81217483079126       -1.29287472923431
C            6.60349528995053       -0.88256944071229       -1.31975827691341
C            7.33914250065836        0.28317304690801       -1.46116249153547
Cl           9.06722633266214        0.20642444112950       -1.49642522851397
C            6.70628234083842        1.50944405653226       -1.57676208955803
C            5.32408722432908        1.56266669195139       -1.54720018213173
Cl           0.37412742181197       -2.13927036872288       -1.08022484126198
H            0.82236355298681        0.38776280003440        1.14795712210988
H            0.72788330997475       -0.95525475647162       -0.48477006412737
H            0.70686235354467        1.16236926149494       -0.30449218852376
H            3.02440013003162       -0.35250656796206        0.65724930697268
H            2.97867032261182        1.41943525486061        0.60316061876203
H            2.70112084503684        1.35487676709954       -1.85368111476872
H            2.63388598940825       -0.41431969495947       -1.80925655233246
H            4.64564514524735       -1.71847569128579       -1.18774356742435
H            7.10751336820261       -1.83226553394634       -1.23378283981968
H            7.28906976935003        2.41008177624694       -1.68952737489299
H            4.83089104030694        2.51926668484536       -1.64104276316008
