21
 energy: -22.604114363972 gnorm: 0.000241239964 xtb: 6.5.1 (fef0646)
N           -1.80122763850576        0.06656402283648        0.81292601307605
C           -1.09546618695651        0.04300022985371       -0.50060931748569
C           -0.19628776579348        1.27173213327071       -0.62290577399960
C            0.98973802663218        1.21912569373403        0.34034870919966
C            1.78613964101291       -0.06760680762782        0.13827885854055
C            0.89490627875539       -1.29158043109142        0.33404396444972
C           -0.29192789690791       -1.24975250956500       -0.62876750267645
H           -2.35095221034525        0.92682169571695        0.91438570227385
H           -1.10525523110078        0.03209759112555        1.56692318280708
H           -2.42390802252574       -0.74355514236669        0.90556264355428
H           -1.85406219123415        0.07360697989363       -1.28668920509118
H           -0.77239547440532        2.18273104080014       -0.45759639076200
H            0.18555883682522        1.31342649980306       -1.64318745399581
H            0.66138159928792        1.28792861455956        1.37895348013105
H            1.63555933460524        2.07908075707562        0.15805104335703
H            2.62465335992003       -0.10106205461340        0.83618203979948
H            2.20212921800432       -0.08078839692056       -0.87138394734741
H            0.56270706738119       -1.34081015397621        1.37255940089803
H            1.47388792629653       -2.19692897423346        0.14698485071659
H           -0.93539299997989       -2.11514061472724       -0.46703955128849
H            0.08534432903388       -1.31584017354765       -1.64945074615674
