  16
        -24.40834456
 N          0.5432682676        1.5436001907        0.0019999679
 C         -0.5970111275        0.6667875819        0.0007056950
 C         -0.4284829358       -0.7083068540        0.0019793725
 C         -1.5222248270       -1.5509594485        0.0012507221
 C         -2.7985276814       -1.0245762174       -0.0006527820
 C         -2.9771340010        0.3443505227       -0.0019002339
 C         -1.8807563840        1.1845195816       -0.0012489765
 Cl         3.4647170446       -0.3258119032       -0.0009969928
 H          0.5899737886        2.1647006230        0.8194558381
 H          0.5889133503        2.1685923077       -0.8124663601
 H          1.4496757962        1.0439461289        0.0002679094
 H          0.5700896625       -1.1107265678        0.0032808358
 H         -1.3792894887       -2.6194937257        0.0020883423
 H         -3.6536919824       -1.6810263060       -0.0012022010
 H         -3.9726217719        0.7580891637       -0.0034318550
 H         -2.0133887129        2.2528532414       -0.0023109954
