  16
  -24.408344560000000       0.11337061075580120      !mtd12
 N          0.5432682676        1.5436001907        0.0019999679
 C         -0.5970111275        0.6667875819        0.0007056950
 C         -0.4284829358       -0.7083068540        0.0019793725
 C         -1.5222248270       -1.5509594485        0.0012507221
 C         -2.7985276814       -1.0245762174       -0.0006527820
 C         -2.9771340010        0.3443505227       -0.0019002339
 C         -1.8807563840        1.1845195816       -0.0012489765
 Cl         3.4647170446       -0.3258119032       -0.0009969928
 H          0.5899737886        2.1647006230        0.8194558381
 H          0.5889133503        2.1685923077       -0.8124663601
 H          1.4496757962        1.0439461289        0.0002679094
 H          0.5700896625       -1.1107265678        0.0032808358
 H         -1.3792894887       -2.6194937257        0.0020883423
 H         -3.6536919824       -1.6810263060       -0.0012022010
 H         -3.9726217719        0.7580891637       -0.0034318550
 H         -2.0133887129        2.2528532414       -0.0023109954
  16
  -24.408334990000000       0.11222830888992587      !gc
 N          1.2284024852       -1.0535290693       -0.1284345036
 C         -0.1966256035       -0.8658502688       -0.0733910216
 C         -1.0505241402       -1.9538590788       -0.1333028863
 C         -2.4192409801       -1.7762946396       -0.0826408432
 C         -2.9474722940       -0.5055049952        0.0284197869
 C         -2.1045372456        0.5860392098        0.0886335975
 C         -0.7365306733        0.4049862857        0.0377002292
 Cl         2.8710230767        1.9911801798        0.1092227236
 H          1.5571439048       -1.4912912853       -0.9981694148
 H          1.5999134308       -1.6442524535        0.6259579395
 H          1.7658338912       -0.1716364193       -0.0594290115
 H         -0.6324022536       -2.9421144918       -0.2198835033
 H         -3.0752049310       -2.6305079652       -0.1298301149
 H         -4.0157468120       -0.3660266100        0.0680601946
 H         -2.5136684882        1.5796270553        0.1754259018
 H         -0.0723860016        1.2510537035        0.0845734209
  16
  -24.408333930000001       0.11210249448282446      !gc
 N          1.2295380200       -1.0567852807        0.0048971865
 C         -0.1964316638       -0.8677947564        0.0046240160
 C         -1.0491712368       -1.9583700788        0.0100307771
 C         -2.4186425509       -1.7795050055        0.0073065466
 C         -2.9489595303       -0.5047835576       -0.0011451823
 C         -2.1072765475        0.5893684710       -0.0067071420
 C         -0.7384838528        0.4069678156       -0.0037726935
 Cl         2.8719726347        1.9941917797       -0.0057978411
 H          1.5814058642       -1.5726957825        0.8211984514
 H          1.7633973193       -0.1747442026        0.0031955327
 H          1.5819068550       -1.5764977791       -0.8136557017
 H         -0.6295679172       -2.9497312816        0.0161374753
 H         -3.0734848504       -2.6358759158        0.0115286313
 H         -4.0178398443       -0.3642878800       -0.0038004532
 H         -2.5179506659        1.5860885280       -0.0136102185
 H         -0.0754873554        1.2552151456       -0.0082862328
  16
  -24.408313119999999       0.10966086385014609      !gc
 N          1.2203470406       -1.0206621248       -0.3167161675
 C         -0.2011285200       -0.8474326029       -0.1812612151
 C         -1.0569907958       -1.9248957428       -0.3333096585
 C         -2.4225988326       -1.7603359335       -0.2088052453
 C         -2.9457634296       -0.5132199326        0.0691787710
 C         -2.1008686963        0.5677146067        0.2220593537
 C         -0.7359719060        0.3997154165        0.0969106545
 Cl         2.8778790286        1.9642811008        0.2705657154
 H          1.7598472934       -0.1583432883       -0.1479965559
 H          1.5141390923       -1.3336327030       -1.2504847938
 H          1.6212173410       -1.7112781117        0.3364876449
 H         -0.6427419086       -2.8946381445       -0.5500202055
 H         -3.0800774924       -2.6062177100       -0.3288170287
 H         -4.0116235270       -0.3839015236        0.1664800913
 H         -2.5060950327        1.5428689276        0.4388622615
 H         -0.0703988603        1.2377346526        0.2145416790
  16
  -24.408291400000000       0.10716916373382609      !mtd3
 N          0.5440961343        1.5335060571        0.0107107289
 C         -0.5990874217        0.6604819469        0.0025549666
 C         -0.4353066255       -0.7152035745        0.0077503062
 C         -1.5319813743       -1.5540524542        0.0058576502
 C         -2.8064611171       -1.0232718370       -0.0009875507
 C         -2.9803400216        0.3462560150       -0.0063781124
 C         -1.8810550905        1.1826083478       -0.0047020521
 Cl         3.4754051797       -0.3157709629       -0.0068334084
 H          0.5895833118        2.1679277000       -0.7965890727
 H          1.4456646783        1.0334035355        0.0015364249
 H          0.5947840701        2.1476113177        0.8381554606
 H          0.5618176480       -1.1211860572        0.0131848577
 H         -1.3927411758       -2.6230608562        0.0097604926
 H         -3.6638872861       -1.6767715688       -0.0022064915
 H         -3.9743740618        0.7634273607       -0.0120673439
 H         -2.0100135730        2.2513832915       -0.0090564796
  16
  -24.408266789999999       0.10441427297989808      !mtd2
 N          0.5433821137        1.5456757875        0.0114600303
 C         -0.5964313622        0.6682363704        0.0036120195
 C         -0.4268572448       -0.7067330891        0.0093596516
 C         -1.5198758032       -1.5502962701        0.0066637610
 C         -2.7965890280       -1.0249714646       -0.0015080669
 C         -2.9762640274        0.3438187410       -0.0072217218
 C         -1.8805825604        1.1849048448       -0.0046351138
 Cl         3.4620077150       -0.3280521057       -0.0077626542
 H          1.4465487632        1.0484972231        0.0011597600
 H          0.5921016383        2.1574701754        0.8357248629
 H          0.5862562515        2.1826871221       -0.7988998797
 H          0.5720334771       -1.1083438408        0.0157687680
 H         -1.3759803331       -2.6186833100        0.0109520092
 H         -3.6512263462       -1.6821118443       -0.0033213362
 H         -3.9720494790        0.7567896932       -0.0134760320
 H         -2.0141209789        2.2531184443       -0.0088399495
  16
  -24.406911950000001        2.4895365992624770E-002 !mtd7
 N          0.7360740970        0.6274325636        1.1595263793
 C         -0.5162183351        0.1004298903        0.6875213040
 C         -1.0713135003       -1.0347562962        1.2553169718
 C         -2.2662295980       -1.5432986516        0.7852348855
 C         -2.9183540561       -0.9210422420       -0.2604100476
 C         -2.3723590836        0.2092683234       -0.8345329729
 C         -1.1772637208        0.7153546917       -0.3620960732
 Cl         3.4169844531        0.6082509177       -1.0052742415
 H          0.6920795674        1.6158899512        1.4387130997
 H          1.4935450140        0.5850797058        0.4605606143
 H          1.1170956560        0.1388751408        1.9850166686
 H         -0.5590270630       -1.5187386230        2.0690472693
 H         -2.6895004477       -2.4269101904        1.2349885312
 H         -3.8510757501       -1.3173071304       -0.6281469741
 H         -2.8781953713        0.6968561442       -1.6521774292
 H         -0.7442292991        1.5944129786       -0.8079329615
  16
  -24.406853750000000        2.3408395537291838E-002 !mtd9
 N          0.6124386292        1.1130164206        0.8128780705
 C         -0.5965378278        0.4061245583        0.4850996716
 C         -0.7617913552       -0.9103635132        0.8812030290
 C         -1.9080016379       -1.6062920180        0.5509621204
 C         -2.9020178719       -0.9907232811       -0.1830081027
 C         -2.7457716127        0.3201671516       -0.5861890834
 C         -1.5980851340        1.0134069050       -0.2543895019
 Cl         3.5439436500        0.1240326450       -0.7052842368
 H          0.8627746311        1.0693924562        1.8091154089
 H          0.5861868055        2.1174917861        0.5947690954
 H          1.4491199391        0.7595583249        0.3153646067
 H          0.0188708655       -1.3862024442        1.4496261286
 H         -2.0257739368       -2.6306387026        0.8656564380
 H         -3.7973499156       -1.5327082448       -0.4415912581
 H         -3.5195292684        0.8031535346       -1.1608211064
 H         -1.4714901515        2.0347884824       -0.5699953712
  16
  -24.406801869999999        2.2157933264315487E-002 !gc
 N          0.6263996420        1.0583546631       -0.8726760965
 C         -0.5906259361        0.3743845683       -0.5269132184
 C         -0.8036043090       -0.9267764813       -0.9502596304
 C         -1.9522984298       -1.6045646342       -0.5920532157
 C         -2.9004138524       -0.9866309988        0.1984716049
 C         -2.6954552893        0.3081969845        0.6306665069
 C         -1.5453752129        0.9832229521        0.2707670098
 Cl         3.5282281009        0.1806105843        0.7603168958
 H          0.5952124223        2.0753212479       -0.7237465645
 H          0.9006480954        0.9486525899       -1.8574590674
 H          1.4507144849        0.7399360695       -0.3327156155
 H         -0.0582163395       -1.4054788444       -1.5619703120
 H         -2.1078761282       -2.6166793818       -0.9291236235
 H         -3.7976326271       -1.5144659744        0.4788674753
 H         -3.4327078922        0.7926300976        1.2503105538
 H         -1.3797093050        1.9912379342        0.6103655978
  16
  -24.406764949999999        2.1308947176188805E-002 !gc
 N          0.7179050981        0.6917397437        1.1308998738
 C         -0.5303830716        0.1420675050        0.6745742551
 C         -1.0410641508       -1.0208040994        1.2277414249
 C         -2.2279043393       -1.5561177693        0.7671177210
 C         -2.9157888083       -0.9339961015       -0.2554104367
 C         -2.4133572758        0.2229926885       -0.8160327619
 C         -1.2264379823        0.7560374126       -0.3527524827
 Cl         3.4374476545        0.5476151641       -0.9822971978
 H          0.6744521880        1.6946887483        1.3527999627
 H          1.4838917566        0.6068192101        0.4452610105
 H          1.0864638381        0.2509734140        1.9883857903
 H         -0.5003576621       -1.5053758993        2.0225233735
 H         -2.6171005251       -2.4604960005        1.2062357127
 H         -3.8423655212       -1.3510465349       -0.6155450215
 H         -2.9473373512        0.7109666198       -1.6153242572
 H         -0.8286490060        1.6571423467       -0.7872564643
  16
  -24.406750450000001        2.0984482049398703E-002 !gc
 N          0.6380712562        1.0094413291        0.9205404780
 C         -0.5854283611        0.3454452057        0.5593756881
 C         -0.8423736971       -0.9394968690        1.0074688104
 C         -1.9936937269       -1.6005488965        0.6270865837
 C         -2.8999481693       -0.9823845021       -0.2109334933
 C         -2.6503059406        0.2956656093       -0.6687917233
 C         -1.4976385043        0.9538754580       -0.2867653541
 Cl         3.5158661921        0.2310979040       -0.8035581907
 H          0.9326069775        0.8428023914        1.8914491515
 H          0.6028685097        2.0332793063        0.8325095370
 H          1.4513845220        0.7241898501        0.3465101134
 H         -0.1291995932       -1.4192651058        1.6556651783
 H         -2.1838641804       -2.5999623668        0.9837526915
 H         -3.7991590806       -1.4972111486       -0.5085970494
 H         -3.3544776523        0.7799770804       -1.3258742958
 H         -1.2961816370        1.9482486925       -0.6466959727
  16
  -24.406738919999999        2.0730006251436464E-002 !mtd1
 N          0.6211591242        1.0851098358       -0.8552720481
 C         -0.5920035099        0.3909363144       -0.5163453143
 C         -0.7859439418       -0.9157073916       -0.9317899156
 C         -1.9306640082       -1.6036249288       -0.5803143622
 C         -2.8941997157       -0.9900879212        0.1948258545
 C         -2.7088031491        0.3105802040        0.6182264142
 C         -1.5625332246        0.9956986294        0.2652919016
 Cl         3.5257993817        0.1534988345        0.7454164854
 H          1.4467434600        0.7563306225       -0.3312589788
 H          0.5895742730        2.0982461292       -0.6827189468
 H          0.8890559327        0.9980850678       -1.8481933866
 H         -0.0287939439       -1.3903688299       -1.5321018786
 H         -2.0708444983       -2.6202498001       -0.9104890734
 H         -3.7884779787       -1.5256936069        0.4698262795
 H         -3.4585664873        0.7918386615        1.2252014792
 H         -1.4123734354        2.0085825327        0.5975354352
  16
  -24.406731929999999        2.0577236613934881E-002 !gc
 N          0.6261819097        1.0607620483        0.8732529520
 C         -0.5903723065        0.3759964769        0.5274212192
 C         -0.8032648323       -0.9246061162        0.9525302118
 C         -1.9511132066       -1.6035346378        0.5938065608
 C         -2.8984716199       -0.9872705517       -0.1989237799
 C         -2.6935676309        0.3069769449       -0.6328847770
 C         -1.5442523841        0.9831033501       -0.2726023609
 Cl         3.5259191064        0.1784580982       -0.7607642847
 H          0.5936333915        2.0779845966        0.7264030918
 H          1.4472785757        0.7449748394        0.3345608832
 H          0.9023164717        0.9492273812        1.8614748223
 H         -0.0583683173       -1.4019943929        1.5658643847
 H         -2.1064638246       -2.6153148087        0.9319769815
 H         -3.7950164066       -1.5160150460       -0.4797585533
 H         -3.4302714155        0.7900718040       -1.2542226836
 H         -1.3786437519        1.9907167296       -0.6134183246
  16
  -24.406727600000000        2.0483167727567652E-002 !mtd9
 N          0.7065012033        0.7419315880        1.1207827713
 C         -0.5377309612        0.1758219987        0.6734209805
 C         -1.0218537743       -1.0007313478        1.2215357502
 C         -2.1986713982       -1.5585412444        0.7618016971
 C         -2.9029419636       -0.9454531588       -0.2550077068
 C         -2.4268042550        0.2247625837       -0.8110342649
 C         -1.2497046121        0.7801329801       -0.3488293268
 Cl         3.4361244755        0.5004438590       -0.9756998290
 H          1.0630369999        0.3382786219        1.9967252864
 H          0.6633841326        1.7535004270        1.2993065397
 H          1.4824550446        0.6265923652        0.4447195666
 H         -0.4680944829       -1.4783621000        2.0114829457
 H         -2.5667262208       -2.4737892890        1.1966106832
 H         -3.8214906627       -1.3802397282       -0.6148064852
 H         -2.9729114011        0.7049732141       -1.6068453637
 H         -0.8709452882        1.6901885132       -0.7816512668
  16
  -24.406707430000001        2.0050611909347892E-002 !gc
 N          0.7091745845        0.7326348118        1.1266283901
 C         -0.5343751313        0.1685449887        0.6749356071
 C         -1.0254674296       -1.0040568193        1.2252728300
 C         -2.2045136457       -1.5567420882        0.7650280014
 C         -2.9033434171       -0.9430504877       -0.2551858567
 C         -2.4195192186        0.2225729845       -0.8142110752
 C         -1.2405395652        0.7731554276       -0.3511150120
 Cl         3.4314282875        0.5102387666       -0.9796551579
 H          1.4821344056        0.6241799838        0.4520856194
 H          1.0660070789        0.3231149566        1.9996771756
 H          0.6645107331        1.7466861666        1.3134913950
 H         -0.4751286929       -1.4831179708        2.0167472080
 H         -2.5788534966       -2.4682604924        1.2022982811
 H         -3.8235705904       -1.3738840555       -0.6154247148
 H         -2.9610109738        0.7029257521       -1.6130895658
 H         -0.8558986591        1.6796764818       -0.7861628784
  16
  -24.406702429999999        1.9944804797043886E-002 !mtd1
 N          0.6338907365        1.0274471957        0.9034267295
 C         -0.5871331593        0.3560039663        0.5475827611
 C         -0.8281250835       -0.9348665783        0.9872969911
 C         -1.9784911259       -1.6020999530        0.6149260531
 C         -2.8999378124       -0.9840480448       -0.2064394587
 C         -2.6664742496        0.3001211800       -0.6556355308
 C         -1.5146772226        0.9644999680       -0.2817229061
 Cl         3.5199829523        0.2125951213       -0.7879252418
 H          1.4480816339        0.7321195491        0.3430240090
 H          0.9214479047        0.8806618524        1.8795571579
 H          0.5991654080        2.0532807571        0.7941662600
 H         -0.1031908922       -1.4142172646        1.6226277576
 H         -2.1559472585       -2.6062730009        0.9647043333
 H         -3.7984309032       -1.5036862993       -0.4978426629
 H         -3.3826874445        0.7844589263       -1.2995523828
 H         -1.3262218793        1.9639207402       -0.6346183711
  16
  -24.406695150000001        1.9791747142047841E-002 !gc
 N          0.6994610046        0.7685146093       -1.1083744192
 C         -0.5423707610        0.1926012274       -0.6668955050
 C         -1.0060524427       -0.9959812467       -1.2066241197
 C         -2.1797091903       -1.5642554181       -0.7516748458
 C         -2.9009725866       -0.9499469005        0.2523941357
 C         -2.4447798463        0.2317780976        0.8007436205
 C         -1.2707630099        0.7975899919        0.3433672644
 Cl         3.4418767234        0.4750354694        0.9649812305
 H          0.6561506893        1.7840969325       -1.2628909987
 H          1.0501078243        0.3854826993       -1.9958379159
 H          1.4793161927        0.6367443263       -0.4398392393
 H         -0.4386521962       -1.4746767234       -1.9861766607
 H         -2.5319494673       -2.4886704408       -1.1801401762
 H         -3.8170331211       -1.3929123041        0.6085380080
 H         -3.0038895659        0.7126452684        1.5870740864
 H         -0.9071278025        1.7162021004        0.7710462830
  16
  -24.406663580000000        1.9141482309364563E-002 !mtd1
 N          0.7055012462        0.7471615402        1.1174872788
 C         -0.5385094200        0.1792095173        0.6718567093
 C         -1.0184522503       -0.9998231775        1.2182924766
 C         -2.1946407584       -1.5598569646        0.7596540607
 C         -2.9024823676       -0.9463544036       -0.2544233948
 C         -2.4305494568        0.2262812082       -0.8089311513
 C         -1.2539843320        0.7837141927       -0.3478391426
 Cl         3.4369383772        0.4954643152       -0.9730889742
 H          0.6623976562        1.7596217136        1.2913004234
 H          1.4792204418        0.6283760629        0.4456388215
 H          1.0619952321        0.3464423630        1.9994101395
 H         -0.4620912479       -1.4773966942        2.0064484204
 H         -2.5593317836       -2.4770717479        1.1931450047
 H         -3.8204674368       -1.3829618124       -0.6134603398
 H         -2.9790805498        0.7062397802       -1.6032254454
 H         -0.8778033081        1.6948223118       -0.7806967182
  16
  -24.406631789999999        1.8508272876550561E-002 !mtd3
 N          0.6569882974        0.9331351637       -0.9844540807
 C         -0.5749805063        0.2987827195       -0.5996454930
 C         -0.8963053188       -0.9608034704       -1.0776358755
 C         -2.0538764023       -1.5940071181       -0.6697208050
 C         -2.9012736895       -0.9738188696        0.2263876254
 C         -2.5867830613        0.2784003103        0.7145932060
 C         -1.4282742749        0.9088724469        0.3045596573
 Cl         3.4967955125        0.3088227445        0.8604273733
 H          1.4546058967        0.6938813934       -0.3755787307
 H          0.6201199867        1.9606558846       -0.9754680376
 H          0.9735771983        0.6930414771       -1.9370981393
 H         -0.2287375293       -1.4433179154       -1.7707949664
 H         -2.2948690007       -2.5734886706       -1.0501767910
 H         -3.8050572765       -1.4671875592        0.5457432331
 H         -3.2446508298        0.7641967440        1.4170176992
 H         -1.1755081685        1.8827048376        0.6875578400
  16
  -24.406598200000001        1.7861955321116407E-002 !mtd12
 N          0.6853619425        0.8211154091       -1.0825295112
 C         -0.5521968398        0.2265847009       -0.6541914867
 C         -0.9775420868       -0.9820318615       -1.1806464304
 C         -2.1442369279       -1.5716372348       -0.7349999077
 C         -2.8963325062       -0.9590513657        0.2472688895
 C         -2.4778061564        0.2420623126        0.7833971344
 C         -1.3107532590        0.8292050487        0.3351663365
 Cl         3.4534876874        0.4238397739        0.9436751210
 H          0.6437499614        1.8433709391       -1.1848499487
 H          1.0221829315        0.4830146932       -1.9933400480
 H          1.4736738512        0.6538306268       -0.4321260668
 H         -0.3852253601       -1.4594894520       -1.9422481124
 H         -2.4668557344       -2.5112663639       -1.1535798769
 H         -3.8069941297       -1.4185702189        0.5962177956
 H         -3.0607297466        0.7213487158        1.5532358875
 H         -0.9759057953        1.7624466897        0.7545886455
  16
  -24.406589319999998        1.7694896766407734E-002 !mtd3
 N          0.6618269302        0.9155531455        1.0092265062
 C         -0.5699003442        0.2872623728        0.6138104086
 C         -0.9132072845       -0.9612364947        1.1055353726
 C         -2.0709187012       -1.5878713594        0.6879515519
 C         -2.8962006408       -0.9724706773       -0.2317934706
 C         -2.5594817692        0.2684599544       -0.7338040653
 C         -1.4010398791        0.8925070990       -0.3139144773
 Cl         3.4833199423        0.3282690358       -0.8816046430
 H          0.6228651927        1.9430235941        1.0215297561
 H          1.4581416516        0.6903043548        0.3934139311
 H          0.9812145207        0.6566210989        1.9560075175
 H         -0.2628606239       -1.4404285807        1.8171211543
 H         -2.3291775166       -2.5586557525        1.0792183987
 H         -3.7999164750       -1.4608322913       -0.5589368932
 H         -3.1997837512        0.7502075629       -1.4550013415
 H         -1.1306194357        1.8572991878       -0.7075969668
  16
  -24.406550650000000        1.6985429447286690E-002 !mtd3
 N          0.6697091432        0.8821712907        1.0373470428
 C         -0.5638599503        0.2656901340        0.6292055419
 C         -0.9371845314       -0.9687326458        1.1345630576
 C         -2.0981588823       -1.5822200180        0.7065802884
 C         -2.8964285866       -0.9679541797       -0.2374551507
 C         -2.5294147912        0.2586065252       -0.7533397097
 C         -1.3679529799        0.8696277251       -0.3228123945
 Cl         3.4732718727        0.3624718610       -0.9052856699
 H          1.4633933339        0.6746685469        0.4118694715
 H          0.9917675115        0.5988762404        1.9718742402
 H          0.6303685202        1.9128246779        1.0778571754
 H         -0.3080193417       -1.4474460347        1.8652451769
 H         -2.3802380375       -2.5417506069        1.1089966043
 H         -3.8028441950       -1.4458916225       -0.5724305567
 H         -3.1484541398        0.7393333403       -1.4935277911
 H         -1.0737175749        1.8230483334       -0.7270028067
  16
  -24.406524940000001        1.6529550125654022E-002 !gc
 N          0.6695883761        0.8835941897       -1.0391785857
 C         -0.5640878981        0.2671259023       -0.6313355395
 C         -0.9371230373       -0.9674973555       -1.1364193874
 C         -2.0968197266       -1.5821513254       -0.7066466554
 C         -2.8942753764       -0.9687187370        0.2386194700
 C         -2.5279127754        0.2583813941        0.7536846895
 C         -1.3677090892        0.8705608863        0.3214051893
 Cl         3.4714467183        0.3608602447        0.9075334570
 H          0.9924833856        0.5995089595       -1.9732474353
 H          1.4627851150        0.6767097387       -0.4129682695
 H          0.6300711304        1.9142066696       -1.0805150838
 H         -0.3089701251       -1.4452883459       -1.8685756312
 H         -2.3784155957       -2.5420801415       -1.1084536126
 H         -3.7994814852       -1.4477805115        0.5752590422
 H         -3.1465330588        0.7386779019        1.4945046692
 H         -1.0742451181        1.8246478956        0.7245801701
