  16
        -24.40834456
 N          0.5432682676        1.5436001907        0.0019999679
 C         -0.5970111275        0.6667875819        0.0007056950
 C         -0.4284829358       -0.7083068540        0.0019793725
 C         -1.5222248270       -1.5509594485        0.0012507221
 C         -2.7985276814       -1.0245762174       -0.0006527820
 C         -2.9771340010        0.3443505227       -0.0019002339
 C         -1.8807563840        1.1845195816       -0.0012489765
 Cl         3.4647170446       -0.3258119032       -0.0009969928
 H          0.5899737886        2.1647006230        0.8194558381
 H          0.5889133503        2.1685923077       -0.8124663601
 H          1.4496757962        1.0439461289        0.0002679094
 H          0.5700896625       -1.1107265678        0.0032808358
 H         -1.3792894887       -2.6194937257        0.0020883423
 H         -3.6536919824       -1.6810263060       -0.0012022010
 H         -3.9726217719        0.7580891637       -0.0034318550
 H         -2.0133887129        2.2528532414       -0.0023109954
  16
        -24.40691195
 N          0.7360740970        0.6274325636        1.1595263793
 C         -0.5162183351        0.1004298903        0.6875213040
 C         -1.0713135003       -1.0347562962        1.2553169718
 C         -2.2662295980       -1.5432986516        0.7852348855
 C         -2.9183540561       -0.9210422420       -0.2604100476
 C         -2.3723590836        0.2092683234       -0.8345329729
 C         -1.1772637208        0.7153546917       -0.3620960732
 Cl         3.4169844531        0.6082509177       -1.0052742415
 H          0.6920795674        1.6158899512        1.4387130997
 H          1.4935450140        0.5850797058        0.4605606143
 H          1.1170956560        0.1388751408        1.9850166686
 H         -0.5590270630       -1.5187386230        2.0690472693
 H         -2.6895004477       -2.4269101904        1.2349885312
 H         -3.8510757501       -1.3173071304       -0.6281469741
 H         -2.8781953713        0.6968561442       -1.6521774292
 H         -0.7442292991        1.5944129786       -0.8079329615
  16
        -24.40680187
 N          0.6263996420        1.0583546631       -0.8726760965
 C         -0.5906259361        0.3743845683       -0.5269132184
 C         -0.8036043090       -0.9267764813       -0.9502596304
 C         -1.9522984298       -1.6045646342       -0.5920532157
 C         -2.9004138524       -0.9866309988        0.1984716049
 C         -2.6954552893        0.3081969845        0.6306665069
 C         -1.5453752129        0.9832229521        0.2707670098
 Cl         3.5282281009        0.1806105843        0.7603168958
 H          0.5952124223        2.0753212479       -0.7237465645
 H          0.9006480954        0.9486525899       -1.8574590674
 H          1.4507144849        0.7399360695       -0.3327156155
 H         -0.0582163395       -1.4054788444       -1.5619703120
 H         -2.1078761282       -2.6166793818       -0.9291236235
 H         -3.7976326271       -1.5144659744        0.4788674753
 H         -3.4327078922        0.7926300976        1.2503105538
 H         -1.3797093050        1.9912379342        0.6103655978
  16
        -24.40670743
 N          0.7091745845        0.7326348118        1.1266283901
 C         -0.5343751313        0.1685449887        0.6749356071
 C         -1.0254674296       -1.0040568193        1.2252728300
 C         -2.2045136457       -1.5567420882        0.7650280014
 C         -2.9033434171       -0.9430504877       -0.2551858567
 C         -2.4195192186        0.2225729845       -0.8142110752
 C         -1.2405395652        0.7731554276       -0.3511150120
 Cl         3.4314282875        0.5102387666       -0.9796551579
 H          1.4821344056        0.6241799838        0.4520856194
 H          1.0660070789        0.3231149566        1.9996771756
 H          0.6645107331        1.7466861666        1.3134913950
 H         -0.4751286929       -1.4831179708        2.0167472080
 H         -2.5788534966       -2.4682604924        1.2022982811
 H         -3.8235705904       -1.3738840555       -0.6154247148
 H         -2.9610109738        0.7029257521       -1.6130895658
 H         -0.8558986591        1.6796764818       -0.7861628784
  16
        -24.40663179
 N          0.6569882974        0.9331351637       -0.9844540807
 C         -0.5749805063        0.2987827195       -0.5996454930
 C         -0.8963053188       -0.9608034704       -1.0776358755
 C         -2.0538764023       -1.5940071181       -0.6697208050
 C         -2.9012736895       -0.9738188696        0.2263876254
 C         -2.5867830613        0.2784003103        0.7145932060
 C         -1.4282742749        0.9088724469        0.3045596573
 Cl         3.4967955125        0.3088227445        0.8604273733
 H          1.4546058967        0.6938813934       -0.3755787307
 H          0.6201199867        1.9606558846       -0.9754680376
 H          0.9735771983        0.6930414771       -1.9370981393
 H         -0.2287375293       -1.4433179154       -1.7707949664
 H         -2.2948690007       -2.5734886706       -1.0501767910
 H         -3.8050572765       -1.4671875592        0.5457432331
 H         -3.2446508298        0.7641967440        1.4170176992
 H         -1.1755081685        1.8827048376        0.6875578400
  16
        -24.40655065
 N          0.6697091432        0.8821712907        1.0373470428
 C         -0.5638599503        0.2656901340        0.6292055419
 C         -0.9371845314       -0.9687326458        1.1345630576
 C         -2.0981588823       -1.5822200180        0.7065802884
 C         -2.8964285866       -0.9679541797       -0.2374551507
 C         -2.5294147912        0.2586065252       -0.7533397097
 C         -1.3679529799        0.8696277251       -0.3228123945
 Cl         3.4732718727        0.3624718610       -0.9052856699
 H          1.4633933339        0.6746685469        0.4118694715
 H          0.9917675115        0.5988762404        1.9718742402
 H          0.6303685202        1.9128246779        1.0778571754
 H         -0.3080193417       -1.4474460347        1.8652451769
 H         -2.3802380375       -2.5417506069        1.1089966043
 H         -3.8028441950       -1.4458916225       -0.5724305567
 H         -3.1484541398        0.7393333403       -1.4935277911
 H         -1.0737175749        1.8230483334       -0.7270028067
