  15
        -16.10672068
 N          1.8833222337       -0.6409966642       -0.0610673039
 C          1.0673668208        0.4787705472        0.4925203597
 C         -0.1282369493        0.8473418762       -0.3886360431
 C         -1.1649235774       -0.2225985168       -0.4675346571
 C         -2.1468041824       -0.3493784321        0.4037196750
 H          2.6870543599       -0.8622304745        0.5464078852
 H          2.2578141084       -0.4044526967       -0.9916887486
 H          1.3253084656       -1.5015956760       -0.1584303737
 H          1.7188927626        1.3524264218        0.6319365175
 H          0.7168627767        0.2060633996        1.4959029161
 H          0.2266765569        1.0917810425       -1.3975318121
 H         -0.5990162397        1.7688801895       -0.0225344682
 H         -1.0889387700       -0.9381638815       -1.2741749412
 H         -2.2614233268        0.3381706717        1.2206135206
 H         -2.8816891671       -1.1299277194        0.3206460751
