18
 energy: -22.196450809842 gnorm: 0.000640068853 xtb: 6.5.1 (fef0646)
N            1.35156164791994       -0.34972757272528       -0.07489487199795
C            2.77384197957060        0.04535447000314       -0.00529551351681
C            3.14548149487992        1.04371121498013       -1.10331165004863
C            2.56381320370332        2.42286545234728       -0.80653256444994
C            4.66678055204745        1.12212446999690       -1.22598530357174
Cl          -0.91530667774096        1.67222279444444        0.35103937432091
H            1.12759345053476       -1.03850185133970        0.64681003944596
H            1.12922769719889       -0.73764789832551       -0.99480281270655
H            0.69737052928070        0.45578197514200        0.07618473740130
H            3.38701081210929       -0.85111769083666       -0.10985752185417
H            2.96485471434355        0.49505650510458        0.96853278389863
H            2.73889084326387        0.69156091707903       -2.05621618358579
H            3.00428750834015        2.83479700101529        0.09888541426997
H            1.48598146579640        2.38422946613993       -0.66886110730139
H            2.77124041544176        3.10875495222603       -1.62400652118401
H            5.10651223330046        1.44333477765437       -0.28509962492669
H            4.94602023848324        1.84001580885174       -1.99218898676320
H            5.08655789152628        0.15634520824266       -1.49427968743151
