  24
        -25.76392772
 N          3.0037803794        0.3384855452       -0.2570631885
 C          1.9561838332       -0.5614186134        0.3115883462
 C          0.5379871411       -0.2463433627       -0.1874872896
 C          0.0170607579        1.1139623628        0.3342824026
 C         -1.3989513689        1.4182325260       -0.1879050763
 C         -2.3815520097        0.2908181847        0.1737839543
 C         -1.8758127675       -1.0695573326       -0.3370513373
 C         -0.4610877693       -1.3685654138        0.1887465148
 H          3.9393006445        0.0695492878        0.0657846240
 H          2.8484508638        1.3130861537        0.0209447382
 H          2.9995888403        0.2986553650       -1.2816152230
 H          1.9756897600       -0.5060279070        1.4044596023
 H          2.2070396096       -1.5978919977        0.0615633665
 H          0.5729264549       -0.1882706196       -1.2855438104
 H          0.7081077873        1.9188715643        0.0618952799
 H          0.0081926401        1.0924055720        1.4287854823
 H         -1.3665023796        1.5362483623       -1.2769576344
 H         -1.7550956236        2.3809178904        0.2009526909
 H         -3.3815568291        0.5063014078       -0.2242581270
 H         -2.5017195785        0.2485093874        1.2622812979
 H         -1.8625370298       -1.0642772782       -1.4328588555
 H         -2.5702815957       -1.8715620085       -0.0555375803
 H         -0.1028049224       -2.3357016918       -0.1833022493
 H         -0.4878397653       -1.4654172290        1.2789081873
  24
        -25.76353312
 N          2.6210597161       -0.1910328580        0.8089482637
 C          2.0447826965       -0.2427619558       -0.5672124125
 C          0.5150693198       -0.0979232124       -0.6196170046
 C          0.0208070648        1.2647275435       -0.0820106631
 C         -1.5032767011        1.4083109422       -0.2483763017
 C         -2.2493933756        0.2521299844        0.4428769563
 C         -1.7482905598       -1.1161432178       -0.0552352099
 C         -0.2230559896       -1.2431041333        0.1108902248
 H          2.4078650026        0.7008187731        1.2693826551
 H          3.6424311546       -0.2895883125        0.7863514092
 H          2.2515918716       -0.9464356601        1.3970974911
 H          2.3362267410       -1.1885037001       -1.0367414057
 H          2.5048537549        0.5459073586       -1.1722790859
 H          0.2076325908       -0.1493270378       -1.6769247179
 H          0.5527780336        2.0855972001       -0.5769144471
 H          0.2744025542        1.3429609906        0.9792843666
 H         -1.7537759410        1.4169510026       -1.3151935529
 H         -1.8441047228        2.3763929596        0.1407365226
 H         -3.3322275339        0.3453370684        0.2889764730
 H         -2.1008478720        0.3205546574        1.5265405433
 H         -2.0104895294       -1.2367900430       -1.1123912214
 H         -2.2628302371       -1.9314115134        0.4694521884
 H          0.1350094212       -2.2161548922       -0.2452818651
 H          0.0257840950       -1.2056461603        1.1755361693
  24
        -25.76240197
 N          2.6960712073       -0.8164749796        0.3507015779
 C          1.6012445859        0.1903935195        0.4905873974
 C          0.6117822784        0.1904693033       -0.6851046331
 C         -0.3122915672        1.4388459879       -0.6668963172
 C         -1.3717190945        1.3677035012        0.4474458480
 C         -2.2061914205        0.0801292064        0.3445847241
 C         -1.3066723739       -1.1673182447        0.3561429526
 C         -0.2442195016       -1.1018508498       -0.7556898512
 H          3.2147347708       -0.6710929904       -0.5217606934
 H          2.3261183367       -1.7727591495        0.3413380901
 H          3.3619785040       -0.7502927397        1.1278455135
 H          2.0487884480        1.1856292386        0.5859048744
 H          1.0637112882        0.0192074953        1.4273496741
 H          1.2178763090        0.2385299726       -1.6048648888
 H         -0.8147728863        1.5359373235       -1.6356799356
 H          0.2929918401        2.3466181068       -0.5584623783
 H         -2.0232729750        2.2507510483        0.4141802430
 H         -0.8810330550        1.4080250559        1.4260819614
 H         -2.7901145245        0.0985457001       -0.5826195959
 H         -2.9443340054        0.0321442693        1.1557958912
 H         -1.9128347052       -2.0769548368        0.2531639925
 H         -0.8179651118       -1.2571819163        1.3322253939
 H         -0.7432584681       -1.1533979468       -1.7300512353
 H          0.4027289078       -1.9846869863       -0.7159464711
  24
        -25.75730403
 N          1.9137038283       -0.0916743019        1.2055174292
 C          1.9450643486       -0.2183546667       -0.2797137003
 C          0.5794713489       -0.2019565385       -0.9944844793
 C         -0.1254608300        1.1864944990       -0.9864866422
 C         -1.0328350945        1.4416258642        0.2312808314
 C         -2.0200465439        0.2865521479        0.4496010252
 C         -1.2654561125       -1.0361827352        0.6416308465
 C         -0.3724149428       -1.3574725821       -0.5710003467
 H          2.8646631786       -0.0763698692        1.5938621574
 H          1.4241921047       -0.8832113211        1.6395114388
 H          1.4531761413        0.7772092358        1.4995671080
 H          2.4691687470       -1.1477777111       -0.5301191003
 H          2.5692612710        0.5860595580       -0.6843893866
 H          0.8146132605       -0.3960541858       -2.0579568767
 H         -0.7243318023        1.2963596301       -1.8979177173
 H          0.6373186850        1.9715200217       -1.0484925229
 H         -1.5784022391        2.3867576289        0.1073873985
 H         -0.4290318114        1.5817854667        1.1326095877
 H         -2.6819850271        0.2044537073       -0.4200659824
 H         -2.6778566220        0.4897843840        1.3049049788
 H         -1.9745393968       -1.8553761872        0.8210383703
 H         -0.6628542846       -0.9784371921        1.5527739375
 H         -1.0143349689       -1.6302924365       -1.4166029545
 H          0.2259610798       -2.2525196528       -0.3644907264
  24
        -25.75562305
 N          2.9528643995        0.2843634748        0.2387487363
 C          1.7945756468       -0.6576032724        0.2765468959
 C          0.5835687645       -0.1658542798       -0.5286082914
 C          0.0214642712        1.1716634904        0.0379600900
 C         -1.4642451651        1.3682691057       -0.3139006757
 C         -2.3495232689        0.2692776796        0.3244546108
 C         -1.5984989771       -1.0763578123        0.4837389429
 C         -0.5280693421       -1.2607316043       -0.6069784359
 H          3.7536637802       -0.0883564279        0.7600097610
 H          2.7070250850        1.1904190002        0.6517934803
 H          3.2537647052        0.4502348566       -0.7273140312
 H          1.4936689130       -0.8282647589        1.3147789983
 H          2.1169437242       -1.6327120477       -0.1041293789
 H          0.9347439333        0.0326713427       -1.5527683610
 H          0.6175748118        2.0212159149       -0.3140146834
 H          0.1319849272        1.1651206384        1.1266321439
 H         -1.5754620352        1.3401740658       -1.4036970139
 H         -1.8048117666        2.3660995402       -0.0108941999
 H         -3.2500426799        0.1189379374       -0.2823115417
 H         -2.7118238558        0.6101406496        1.3014113229
 H         -2.3040229132       -1.9166094876        0.4784088302
 H         -1.1141677138       -1.1104474306        1.4658605445
 H         -1.0132790401       -1.2267022119       -1.5886152118
 H         -0.0771141029       -2.2568673693       -0.5387491389
  24
        -25.75552283
 N          2.9631180690        0.3220555881       -0.3810589875
 C          1.9533713997       -0.5549676055        0.2826796825
 C          0.5129221237       -0.2572511034       -0.1555853770
 C          0.0612280869        1.1789018122        0.2480138892
 C         -1.4741612494        1.3119968662        0.4106387349
 C         -2.2263263630        0.3523414216       -0.5280800561
 C         -1.9026812209       -1.1273143002       -0.2015787992
 C         -0.4836236029       -1.3083397488        0.3926103733
 H          3.9161925500        0.0796083171       -0.0905262812
 H          2.8065824978        1.3083997828       -0.1476091369
 H          2.9098895440        0.2282467643       -1.4006214611
 H          2.0307172966       -0.4495498132        1.3693182227
 H          2.1931950832       -1.6017409778        0.0673390409
 H          0.4784108556       -0.3204031007       -1.2533982170
 H          0.4153551339        1.8994524264       -0.4967033765
 H          0.5604952039        1.4562936427        1.1820493774
 H         -1.7934936222        2.3479753571        0.2419881558
 H         -1.7533982431        1.0855726243        1.4456812154
 H         -1.9375270138        0.5711598041       -1.5622017746
 H         -3.3075224545        0.5330016255       -0.4821143946
 H         -2.0030029520       -1.7381818116       -1.1063332222
 H         -2.6493683475       -1.5209656548        0.4978146211
 H         -0.1077733156       -2.3197082815        0.2013224750
 H         -0.5216294528       -1.2127901838        1.4824637166
  24
        -25.75530219
 N          3.0176182689        0.2930831441       -0.1099948272
 C          1.8267068639       -0.3415539153        0.5313691442
 C          0.5768035063       -0.3366691363       -0.3619569154
 C         -0.0442986191        1.0902215248       -0.4892997360
 C         -1.2251459133        1.3006126255        0.4769376837
 C         -2.3875500374        0.3201052385        0.1836529924
 C         -1.8901098969       -1.0379950699       -0.3720582962
 C         -0.4770807118       -1.3706467897        0.1371307302
 H          3.8371482615        0.2508438758        0.5048514342
 H          2.8443886240        1.2791358172       -0.3308733012
 H          3.2551933898       -0.1854249403       -0.9849551248
 H          1.6007918278        0.1605023336        1.4772269250
 H          2.0790732236       -1.3744059687        0.7952896231
 H          0.8986264564       -0.6553154021       -1.3651316403
 H         -0.3930576807        1.2530790166       -1.5149529421
 H          0.7243393943        1.8502697243       -0.3179648428
 H         -1.5764283907        2.3392995387        0.4353177804
 H         -0.8742127221        1.1544909387        1.5044692864
 H         -3.0865160484        0.7788338078       -0.5253246651
 H         -2.9698783874        0.1522197868        1.0972870006
 H         -1.8695589560       -0.9994934454       -1.4670023706
 H         -2.5922524461       -1.8424331224       -0.1205486878
 H         -0.1859396691       -2.3875377449       -0.1512145349
 H         -0.4802362568       -1.3671649458        1.2316020394
  24
        -25.75494407
 N          2.9660040107        0.3975900686       -0.3006438203
 C          1.9575395151       -0.5776190472        0.2126285183
 C          0.5139189609       -0.2341077359       -0.1834956371
 C         -0.0178785906        1.0224695857        0.5456064877
 C         -1.3977985435        1.4691893596       -0.0006455047
 C         -2.2452057752        0.2814532728       -0.5209896765
 C         -1.9251884010       -1.0140813323        0.2453259024
 C         -0.4481577425       -1.4399181646        0.0516812969
 H          3.9192233541        0.1085735844       -0.0568778294
 H          2.8160851673        1.3327081683        0.0922556063
 H          2.9105914149        0.4727207377       -1.3217225465
 H          2.0290098748       -0.6448215021        1.3027133358
 H          2.2078953808       -1.5748752393       -0.1652994905
 H          0.5090728785       -0.0096836194       -1.2603949341
 H          0.7064399398        1.8399492354        0.4755910397
 H         -0.0969205923        0.7942767577        1.6133981176
 H         -1.2554707121        2.2031614018       -0.8024347068
 H         -1.9514042848        1.9998520123        0.7826756939
 H         -2.0397533360        0.1229132435       -1.5855566824
 H         -3.3160577090        0.5126996948       -0.4613670180
 H         -2.6041747074       -1.8209102152       -0.0574360667
 H         -2.1222667308       -0.8516003311        1.3108505369
 H         -0.3704162753       -2.1397141884       -0.7876060935
 H         -0.1031305513       -2.0001136317        0.9270051911
