  24
        -25.76392772
 N          3.0037803794        0.3384855452       -0.2570631885
 C          1.9561838332       -0.5614186134        0.3115883462
 C          0.5379871411       -0.2463433627       -0.1874872896
 C          0.0170607579        1.1139623628        0.3342824026
 C         -1.3989513689        1.4182325260       -0.1879050763
 C         -2.3815520097        0.2908181847        0.1737839543
 C         -1.8758127675       -1.0695573326       -0.3370513373
 C         -0.4610877693       -1.3685654138        0.1887465148
 H          3.9393006445        0.0695492878        0.0657846240
 H          2.8484508638        1.3130861537        0.0209447382
 H          2.9995888403        0.2986553650       -1.2816152230
 H          1.9756897600       -0.5060279070        1.4044596023
 H          2.2070396096       -1.5978919977        0.0615633665
 H          0.5729264549       -0.1882706196       -1.2855438104
 H          0.7081077873        1.9188715643        0.0618952799
 H          0.0081926401        1.0924055720        1.4287854823
 H         -1.3665023796        1.5362483623       -1.2769576344
 H         -1.7550956236        2.3809178904        0.2009526909
 H         -3.3815568291        0.5063014078       -0.2242581270
 H         -2.5017195785        0.2485093874        1.2622812979
 H         -1.8625370298       -1.0642772782       -1.4328588555
 H         -2.5702815957       -1.8715620085       -0.0555375803
 H         -0.1028049224       -2.3357016918       -0.1833022493
 H         -0.4878397653       -1.4654172290        1.2789081873
