  22
        -27.47155079
 N          0.7278082806       -1.4880742193        0.4657701203
 C         -0.3329675473       -0.6380129822       -0.0856863558
 C         -1.7082325843       -1.3328532469       -0.0432827474
 C         -2.8059384764       -0.4376661412       -0.6426703518
 C         -2.8631941831        0.9225454168        0.0741834503
 C         -1.4929069454        1.6213510527        0.0404849397
 C         -0.3997887941        0.7207317297        0.6392815436
 Cl         3.4237537530        0.3392172772       -0.2102289963
 H          0.5242926547       -1.6614200801        1.4427811325
 H          2.3415892451       -0.4090705942        0.0607781082
 H          0.7016587547       -2.3944818068        0.0130186326
 H         -0.0814004524       -0.4408780650       -1.1414865859
 H         -1.9498210420       -1.5668288398        0.9991255927
 H         -1.6592888571       -2.3005233815       -0.5578285881
 H         -3.7817085497       -0.9401542171       -0.6044648174
 H         -2.6019258585       -0.2779275227       -1.7083785112
 H         -3.1673498462        0.7706317460        1.1168083323
 H         -3.6392342202        1.5636185773       -0.3662587302
 H         -1.5331760800        2.5855497481        0.5646317469
 H         -1.2344208576        1.8641918695       -0.9973387752
 H         -0.6072204934        0.5412937795        1.6996304181
 H          0.5806949861        1.2116601005        0.6118475091
  22
        -27.47076101
 N          0.9603046353       -1.2176966749       -1.2885987113
 C         -0.3629937400       -0.6192666074       -1.0656627384
 C         -0.9669296947       -1.0803226347        0.2756433128
 C         -2.3532942948       -0.4577610015        0.5102836674
 C         -2.2858873978        1.0780046130        0.4484199512
 C         -1.6809858281        1.5492805357       -0.8853732936
 C         -0.2969486725        0.9200742074       -1.1163002234
 Cl         2.6644838817        0.0045580323        1.2915934280
 H          0.8809097384       -2.2282419407       -1.3052421072
 H          1.9894360129       -0.4970803486        0.2443977426
 H          1.3098903596       -0.9418832849       -2.1989340522
 H         -1.0414564549       -0.9521281574       -1.8705200476
 H         -0.2884185814       -0.7858856811        1.0832220607
 H         -1.0093096507       -2.1758427398        0.3139422373
 H         -2.7727410289       -0.7918154035        1.4686840144
 H         -3.0490110480       -0.8219439513       -0.2553639755
 H         -1.6695484435        1.4475776165        1.2767982465
 H         -3.2800675331        1.5191493161        0.6039489124
 H         -1.6208200102        2.6452698469       -0.9208632648
 H         -2.3498281529        1.2671309977       -1.7075070360
 H          0.3991099637        1.2650004321       -0.3444390563
 H          0.1367858528        1.2480508170       -2.0690557730
  22
        -27.47013359
 N          0.3816312098       -1.0927035814        0.5940553628
 C         -0.2947999045       -0.6319166771       -0.6214326906
 C         -1.7038696501       -1.2493368297       -0.7683099537
 C         -2.6936302499       -0.6726501343        0.2569248084
 C         -2.7565325377        0.8607961394        0.1671592107
 C         -1.3615184154        1.4833810824        0.3400899038
 C         -0.3650161607        0.9110569371       -0.6811708910
 Cl         3.4161097523        0.2172649202        0.2254416763
 H         -0.1388303455       -0.7746290776        1.4016480391
 H          2.1949095742       -0.3201178420        0.3811728208
 H          0.3543525636       -2.1053486413        0.6309440640
 H          0.3255504554       -0.9757673303       -1.4694586705
 H         -1.6406347825       -2.3400388405       -0.6687279681
 H         -2.0801386147       -1.0652874011       -1.7815232373
 H         -2.3915519949       -0.9680336807        1.2683296586
 H         -3.6923632441       -1.1087987375        0.1168473976
 H         -3.4584858950        1.2658887380        0.9087176122
 H         -3.1645557356        1.1505595398       -0.8090668097
 H         -0.9986042257        1.2934129993        1.3567190815
 H         -1.4146443648        2.5775671583        0.2547981753
 H          0.6350824426        1.3290186685       -0.5131529212
 H         -0.6541069265        1.2268082856       -1.6904921254
  22
        -27.46887821
 N          0.7825834289       -1.3257073130       -0.9385192857
 C         -0.6473494327       -1.1560607871       -1.2223208898
 C         -1.5050449209       -1.4032527122        0.0391062128
 C         -1.3228821805       -0.2887504558        1.0812202293
 C         -1.6236880809        1.0930598671        0.4782087131
 C         -0.7612761216        1.3530353493       -0.7676570329
 C         -0.9422705454        0.2411805435       -1.8128104765
 Cl         2.2843231337        0.6557289541        1.2738032880
 H          0.9466851271       -2.2731697347       -0.6155659038
 H          1.6960329088       -0.1532576249        0.3788284286
 H          1.3081174782       -1.2227754527       -1.8003260420
 H         -0.9306120025       -1.9117082115       -1.9794091069
 H         -1.2487966394       -2.3780368722        0.4723868321
 H         -2.5624663894       -1.4706449812       -0.2427911401
 H         -0.2946345651       -0.3069396615        1.4589202361
 H         -1.9558778776       -0.4733841910        1.9601339384
 H         -1.4753229251        1.8841587530        1.2257662080
 H         -2.6843390402        1.1462553768        0.2032718918
 H          0.2932824125        1.4121182121       -0.4766416949
 H         -0.9955338828        2.3346198100       -1.2022552512
 H         -0.2913027573        0.4192851757       -2.6777170360
 H         -1.9675062445        0.2674679181       -2.2004880313
  22
        -27.46267858
 N          0.5681483881       -1.4409520187        0.2953947355
 C         -0.2714818467       -0.5630501857       -0.5256429215
 C         -1.6936359534       -1.1612138110       -0.7159027724
 C         -2.6809153439       -0.6237763968        0.3338673656
 C         -2.8690708098        0.9084429103        0.2054222913
 C         -1.6011749504        1.6155354369       -0.3343069913
 C         -0.3225838293        0.8669633479        0.0769717483
 Cl         3.4346686993        0.2453794674        0.2280367077
 H          0.1343334334       -1.5432231420        1.2050198343
 H          2.2822625757       -0.4443129812        0.2582148565
 H          0.5851157409       -2.3704337582       -0.1083167167
 H          0.2131123530       -0.4909916314       -1.5144787766
 H         -1.6423503182       -2.2555238955       -0.6767895181
 H         -2.0675825400       -0.9179701014       -1.7171848915
 H         -2.3005057519       -0.8627055385        1.3338484313
 H         -3.6459495172       -1.1423534143        0.2601706032
 H         -3.1417561824        1.3335379707        1.1792604418
 H         -3.7224465560        1.1213003270       -0.4507389640
 H         -1.5641169514        2.6604366888       -0.0002654963
 H         -1.6460888530        1.6620871564       -1.4290553257
 H         -0.2877665975        0.7813709930        1.1679385748
 H          0.5749335969        1.4342112777       -0.1986042788
