  15
        -18.98259346
 N          0.1339076634       -1.1749614835       -0.0003518068
 C          0.9963043320       -0.0020886677        0.0029926539
 C          2.4822078090       -0.3458398201       -0.0006445521
 C          3.3703835234        0.8888610967       -0.0010049450
 Cl        -2.8495934172        0.3052881266       -0.0003086132
 H          0.3472655016       -1.7521559827        0.8054565690
 H          0.3446184656       -1.7482829491       -0.8102971061
 H         -1.6537507612       -0.2950699940       -0.0003496479
 H          0.7545064223        0.6164371658        0.8767949696
 H          0.7521324574        0.6224313133       -0.8648005794
 H          2.7046374209       -0.9738557931       -0.8721697298
 H          2.7085419543       -0.9765086524        0.8683069102
 H          3.1810669342        1.5111171799       -0.8772505045
 H          4.4314594223        0.6313615509       -0.0045535602
 H          3.1860904197        1.5081033933        0.8786010081
