  15
        -18.98259346
 N          0.1339076634       -1.1749614835       -0.0003518068
 C          0.9963043320       -0.0020886677        0.0029926539
 C          2.4822078090       -0.3458398201       -0.0006445521
 C          3.3703835234        0.8888610967       -0.0010049450
 Cl        -2.8495934172        0.3052881266       -0.0003086132
 H          0.3472655016       -1.7521559827        0.8054565690
 H          0.3446184656       -1.7482829491       -0.8102971061
 H         -1.6537507612       -0.2950699940       -0.0003496479
 H          0.7545064223        0.6164371658        0.8767949696
 H          0.7521324574        0.6224313133       -0.8648005794
 H          2.7046374209       -0.9738557931       -0.8721697298
 H          2.7085419543       -0.9765086524        0.8683069102
 H          3.1810669342        1.5111171799       -0.8772505045
 H          4.4314594223        0.6313615509       -0.0045535602
 H          3.1860904197        1.5081033933        0.8786010081
  15
        -18.98208612
 N          0.3328260392       -0.5994013038        0.5815996930
 C          0.9660240994        0.0480322995       -0.5572197682
 C          2.4781186717       -0.1586229645       -0.6156399201
 C          3.2111453248        0.4933442899        0.5456705814
 Cl        -2.8607125574        0.1124853794       -0.0345161853
 H          0.7015646543       -0.2203319287        1.4467208681
 H          0.5748565854       -1.5839607420        0.5867998653
 H         -1.5787807603       -0.1761772229        0.2179619280
 H          0.7339217083        1.1202897019       -0.5296732932
 H          0.4912509964       -0.3254013601       -1.4735739612
 H          2.8686293958        0.2305764104       -1.5652737187
 H          2.6929287259       -1.2344327405       -0.6369274395
 H          3.0053147222        1.5640505244        0.5904744644
 H          4.2934256637        0.3710783295        0.4667937926
 H          2.9074156373        0.0662311421        1.5024899932
  15
        -18.98160932
 N          0.0457659515       -1.6930726091        0.1424164596
 C          1.1661122864       -0.8820747108        0.6048717158
 C          1.6282329007        0.1299861422       -0.4387749558
 C          2.7707310996        1.0041181172        0.0546813725
 Cl        -2.2887218872        0.6608472644       -0.1586543712
 H         -0.1817300351       -2.4115603900        0.8220586236
 H          0.3058475107       -2.1806808239       -0.7079959130
 H         -1.3586681022       -0.2932171760       -0.0367193381
 H          2.0078207264       -1.5244561466        0.8968422260
 H          0.8665479054       -0.3543698344        1.5182903558
 H          0.7758405480        0.7520138617       -0.7381042022
 H          1.9231076435       -0.4027484349       -1.3515790786
 H          3.0927794381        1.7236479006       -0.7008467385
 H          3.6396253210        0.4023311465        0.3261182092
 H          2.4806653715        1.5687453640        0.9424911175
  15
        -18.98117298
 N          0.2840315482       -1.3950485462        0.5863636900
 C          1.1559740005       -1.1226539357       -0.5494857539
 C          1.6043482187        0.3358794173       -0.6219318216
 C          2.4872979306        0.7441112641        0.5461645921
 Cl        -2.2660883391        0.6479601231       -0.0380411080
 H          0.7760011036       -1.2107614483        1.4534685604
 H          0.0306152243       -2.3775922017        0.6142732029
 H         -1.2470648582       -0.1801721571        0.2187299952
 H          0.6190468050       -1.3937462717       -1.4685389508
 H          2.0356116591       -1.7779161092       -0.5144112024
 H          0.7184713906        0.9813019316       -0.6623457794
 H          2.1337383163        0.5150095736       -1.5675523516
 H          2.8337002759        1.7758662266        0.4561196391
 H          3.3706001849        0.1070529658        0.6146229516
 H          1.9569012690        0.6641667147        1.4961386351
  15
        -18.98099408
 N          0.1489018262       -1.6224096869        0.2614748978
 C          1.2013828114       -1.2537186837       -0.6776145481
 C          2.1779865045       -0.2300412414       -0.1026549038
 C          1.4997707466        1.0724498177        0.2867132848
 Cl        -2.0279410872        0.8916300070        0.0713844689
 H          0.5655476909       -1.9056876746        1.1412452616
 H         -0.3652781788       -2.4301745850       -0.0776550938
 H         -1.1650513209       -0.1276191740        0.1465357779
 H          0.7312881563       -0.8444842486       -1.5808260619
 H          1.7437910920       -2.1512731833       -1.0041908768
 H          2.9805864643       -0.0324386591       -0.8255545627
 H          2.6791331751       -0.6640897946        0.7718172415
 H          0.9929483755        1.5245853658       -0.5673508698
 H          2.2098282529        1.8063430737        0.6735396826
 H          0.7469809361        0.9096616047        1.0594263989
