22
 energy: -30.745593901924 gnorm: 0.000363793185 xtb: 6.5.1 (fef0646)
N            2.68026167949158        1.07971695474281        0.41686378296665
C            1.89939679817554       -0.16630153627359        0.20072291941771
C            0.49118177255678        0.00980086163872        0.75887097637573
C            2.61365724628584       -1.33078150393485        0.84295039635725
C            3.01114000159343       -2.41635474029835        0.07592629685379
C            3.65545204184819       -3.49276258350422        0.66040766942689
C            3.91164475855733       -3.49358462036423        2.02093190524979
C            3.51841380819272       -2.41425038170356        2.79379524359473
C            2.87266418146524       -1.34044149035906        2.20859347851199
Cl           5.33291342159075        0.87444493251530       -1.05124228580061
H            3.61409092757177        1.01305152512571       -0.06705696320044
H            2.85788823413133        1.23199099954011        1.41279539583104
H            2.18886703503179        1.88928150012215        0.03019485640280
H            1.85513080548159       -0.33671833177080       -0.87766174912484
H            0.51749416380226        0.20514164353121        1.82630108174474
H           -0.07958393018134       -0.89947269913795        0.59808802412453
H           -0.02134151801028        0.82498864491299        0.25701938054704
H            2.82506483765073       -2.41822092277598       -0.98780789422940
H            3.96428366427535       -4.32979769596666        0.05172485941584
H            4.41829083462861       -4.33177630375765        2.47583923421840
H            3.71795657209215       -2.41118108045997        3.85482642477535
H            2.56709266370671       -0.51615317174543        2.83457696651231
