  16
        -25.46795676
 N         -1.1849759207        0.1708986248        0.8725189149
 C         -0.5044790505       -0.2778702274       -0.3338947522
 C          0.9736375190       -0.2950970261       -0.1864388648
 C          1.7490144534       -1.3992595830       -0.0590280645
 C          3.1371270326       -1.1063022024        0.0816054747
 C          3.4075039650        0.2162484893        0.0621197172
 S          1.9586622545        1.1381056527       -0.1308078022
 Cl        -4.3606556089       -0.0192810225       -0.1230336820
 H         -0.8440905033        1.0942594394        1.1155029366
 H         -0.9162211648       -0.4274216011        1.6463561165
 H         -3.0900237561        0.0599951874        0.2816810675
 H         -0.7824296927        0.3763844680       -1.1693583148
 H         -0.8673919798       -1.2762163766       -0.6049454528
 H          1.3498032955       -2.4016071198       -0.0604375624
 H          3.8935620603       -1.8689994847        0.1930860670
 H          4.3832683458        0.6545676651        0.1527638717
