  16
        -25.46795676
 N         -1.1849759207        0.1708986248        0.8725189149
 C         -0.5044790505       -0.2778702274       -0.3338947522
 C          0.9736375190       -0.2950970261       -0.1864388648
 C          1.7490144534       -1.3992595830       -0.0590280645
 C          3.1371270326       -1.1063022024        0.0816054747
 C          3.4075039650        0.2162484893        0.0621197172
 S          1.9586622545        1.1381056527       -0.1308078022
 Cl        -4.3606556089       -0.0192810225       -0.1230336820
 H         -0.8440905033        1.0942594394        1.1155029366
 H         -0.9162211648       -0.4274216011        1.6463561165
 H         -3.0900237561        0.0599951874        0.2816810675
 H         -0.7824296927        0.3763844680       -1.1693583148
 H         -0.8673919798       -1.2762163766       -0.6049454528
 H          1.3498032955       -2.4016071198       -0.0604375624
 H          3.8935620603       -1.8689994847        0.1930860670
 H          4.3832683458        0.6545676651        0.1527638717
  16
        -25.46769697
 N         -1.1722422533        0.4176230628        0.7367555110
 C         -0.5028674145       -0.3647953993       -0.2925979926
 C          0.9776812773       -0.3424628004       -0.1659724777
 C          1.7925783556       -1.4254578100       -0.1396944074
 C          3.1731586592       -1.0962236771       -0.0054930288
 C          3.3994801182        0.2325858157        0.0684687094
 S          1.9170607683        1.1154762328       -0.0269548455
 Cl        -4.3585663398       -0.0624625869       -0.1146283867
 H         -0.8360166635        1.3729411217        0.6920279266
 H         -0.8885091392        0.0753430602        1.6484762414
 H         -3.0827653707        0.1344086949        0.2291225282
 H         -0.7925755300        0.0143373219       -1.2803204868
 H         -0.8674022643       -1.3979587794       -0.2520339602
 H          1.4276321586       -2.4381909225       -0.2123908287
 H          3.9565824944       -1.8385948348        0.0328401985
 H          4.3620676015        0.6964299477        0.1720806130
  16
        -25.46732493
 N         -1.2983042374       -1.0109176834        0.3547266038
 C         -0.5071947698        0.1387370249       -0.0653624781
 C          0.9649807833       -0.0737845794       -0.0186567863
 C          1.6104025478       -1.2171039057        0.3174783186
 C          3.0315218448       -1.1091446136        0.2681423903
 C          3.4606757516        0.1147170343       -0.1056005559
 S          2.1246641199        1.1672525902       -0.4072124132
 Cl        -4.3783001349        0.2296684595        0.0481568126
 H         -1.0320963878       -1.2795387377        1.2959858061
 H         -1.0803181470       -1.8052614529       -0.2365227252
 H         -3.1468554773       -0.2721210716        0.1743293947
 H         -0.7682078134        0.9985592742        0.5638741581
 H         -0.8004728098        0.4205288636       -1.0834698053
 H          1.0997021142       -2.1252597977        0.5957271781
 H          3.6949086937       -1.9271510015        0.5072690651
 H          4.4872567038        0.4119401444       -0.2069036636
  16
        -25.46674008
 N         -1.6338326034        1.1425581871        1.1737933241
 C         -0.5722948753        0.3288356531        1.7554947961
 C          0.5120375679        0.0420110570        0.7811216314
 C          0.6573068826       -1.1005881569        0.0670703743
 C          1.7809499180       -1.0846225021       -0.8099841284
 C          2.4814075392        0.0683349083       -0.7578161119
 S          1.7761241707        1.1666333562        0.3746998082
 Cl        -2.5639815658       -0.9142485509       -1.2816844562
 H         -1.2385069796        2.0089978910        0.8247218844
 H         -2.3179999385        1.4006459591        1.8776293758
 H         -2.1885373959       -0.0859688629       -0.3036927538
 H         -0.9991232915       -0.6153933081        2.1150139121
 H         -0.1442720086        0.8269750200        2.6342628869
 H         -0.0217218757       -1.9351622336        0.1482756540
 H          2.0399633691       -1.9126134042       -1.4531841800
 H          3.3587017420        0.2913596181       -1.3349617576
  16
        -25.46558214
 N         -1.7453823421       -1.5779417803       -0.6591287191
 C         -0.6533271129       -1.1032753508       -1.5020428240
 C          0.5232258052       -0.6589462910       -0.7114543551
 C          1.3357357460       -1.4676707925        0.0095889765
 C          2.3795932509       -0.7707067305        0.6859797388
 C          2.3553895985        0.5623323125        0.4742471342
 S          1.0464891911        0.9958432266       -0.5665710604
 Cl        -2.2697611861        1.1407019158        1.2092850753
 H         -1.4279332571       -2.3610529103       -0.0974604797
 H         -2.5138625674       -1.9236220454       -1.2250810132
 H         -2.0477150256        0.0570527863        0.4615808787
 H         -1.0119813923       -0.2616698210       -2.1071210965
 H         -0.3444218125       -1.8819553596       -2.2104011995
 H          1.1992916393       -2.5363310599        0.0675120810
 H          3.1137395688       -1.2637090492        1.3059306560
 H          3.0464679977        1.2723306488        0.8874482508
  16
        -25.46461963
 N         -1.6571541843        1.3850775422        0.6980818679
 C         -0.6932813644        1.5272566468       -0.3892321469
 C          0.4932911052        0.6469073116       -0.2262301713
 C          0.4695168493       -0.7066358000       -0.1867154049
 C          1.7548390933       -1.2972995521       -0.0162738848
 C          2.7498268250       -0.3895401951        0.0743818289
 S          2.1288499300        1.2183981140       -0.0475087918
 Cl        -2.8245076197       -1.6543706931       -0.0002810047
 H         -2.3756519755        2.0996614703        0.6380886855
 H         -1.1844392765        1.5278513885        1.5836986988
 H         -2.3848755665       -0.4268100717        0.2924196974
 H         -0.3569433028        2.5692267057       -0.4682352532
 H         -1.1880156901        1.2925128203       -1.3387808947
 H         -0.4408588899       -1.2792177354       -0.2624612312
 H          1.9123076576       -2.3644222135        0.0366046162
 H          3.7908504741       -0.6165932858        0.2055325732
  16
        -25.46458628
 N         -1.6305356566       -1.5852407377       -0.4925250332
 C         -0.6714374307       -1.6321516300        0.6058193094
 C          0.5995063371       -0.9300678738        0.2847824392
 C          1.8246750846       -1.5095839011        0.2655412537
 C          2.8752265144       -0.6121214792       -0.0790935506
 C          2.4421936920        0.6425195119       -0.3202026714
 S          0.7281391143        0.7584595470       -0.1314451861
 Cl        -2.4570612047        1.5835310613        0.0492327987
 H         -2.4110390393       -2.2123752004       -0.3231041736
 H         -1.1842704214       -1.9024537354       -1.3459569668
 H         -2.1190076470        0.3138787136       -0.1826872832
 H         -0.4545385576       -2.6732193063        0.8784720173
 H         -1.1212074531       -1.1726042504        1.4934923882
 H          1.9855271823       -2.5527135337        0.4893132210
 H          3.9116556831       -0.9093526029       -0.1399659171
 H          3.0644076784        1.4731335680       -0.5948872716
  16
        -25.46117704
 N         -1.6278518949       -0.9233619424        1.6265702340
 C         -0.4052697102       -0.2347791554        2.0108580985
 C          0.6313442059       -0.2589204157        0.9461694046
 C          1.4184237327       -1.3178809916        0.6404192552
 C          2.3087754224       -1.0714510908       -0.4454825787
 C          2.1941438943        0.1721477740       -0.9583451261
 S          0.9867171374        1.0770585544       -0.1162128359
 Cl        -2.3868620479        0.4551127894       -1.4216598662
 H         -1.4374472519       -1.9025485846        1.4491289918
 H         -1.9668379232       -0.5370613803        0.7514119738
 H         -1.1443230753        0.6868520678       -1.0097950767
 H         -0.0087853150       -0.6801736815        2.9313223738
 H         -0.6463793125        0.8042836169        2.2634560664
 H          1.3680830564       -2.2578909687        1.1674820121
 H          3.0038563366       -1.8091922618       -0.8181868301
 H          2.7680074716        0.5643382133       -1.7765389204
  16
        -25.46059947
 N         -0.1598089023        0.8995814189       -3.1667430675
 C         -0.6790070995        0.0529835279       -2.1058213388
 C          0.2863630945       -0.1285466114       -0.9911637905
 C          1.0275192281       -1.2377212646       -0.7524555742
 C          1.8818351308       -1.1180642583        0.3826182530
 C          1.7874443729        0.0801625528        0.9974758955
 S          0.6384841391        1.0937479115        0.1972002009
 Cl        -2.0582970050       -0.4970140319        2.1353121686
 H          0.6969601174        0.5049551894       -3.5368962884
 H          0.0825525708        1.8083319477       -2.7908479362
 H         -1.0519609618       -0.0219171943        1.4153690956
 H         -0.9592455544       -0.9213270628       -2.5244658916
 H         -1.6082639112        0.4886919988       -1.7205514945
 H          0.9770891686       -2.1222632634       -1.3681912262
 H          2.5401429006       -1.9082004555        0.7122587904
 H          2.3430601735        0.3808855615        1.8655928746
  16
        -25.46016541
 N         -1.7176207189        0.4081343450       -1.7197581952
 C         -0.5759483038       -0.4423535473       -2.0182669274
 C          0.4973070436       -0.3704784941       -0.9905420062
 C          1.2866308712       -1.4026933121       -0.6038861485
 C          2.2231379682       -1.0569629807        0.4139009092
 C          2.1460957684        0.2363802067        0.7926638275
 S          0.9200022590        1.0655642882       -0.0989170803
 Cl        -2.0829208592       -0.0056508196        1.7294685515
 H         -1.4407143703        1.3823179086       -1.7510538910
 H         -2.0203318263        0.2346165319       -0.7677272823
 H         -0.9212306412        0.3000284904        1.1641880889
 H         -0.1683610360       -0.1756990032       -3.0009455941
 H         -0.9263642369       -1.4768813057       -2.1125831987
 H          1.2054839043       -2.3932236241       -1.0239370612
 H          2.9231471985       -1.7623517472        0.8367479431
 H          2.7579248279        0.7047921316        1.5403211439
  16
        -25.45987029
 N         -0.8073341763        0.5803903300        2.9738121634
 C         -1.1472636671        0.4218786770        1.5697353340
 C          0.0305523274        0.0953829594        0.7256027294
 C          0.4380376743       -1.1507817417        0.3860345562
 C          1.6079981867       -1.1644014102       -0.4272130303
 C          2.0847709247        0.0696083068       -0.6957346054
 S          1.1059926434        1.2837569926        0.0479566390
 Cl        -1.6540917001       -0.7302859036       -1.8857507727
 H         -0.1150630803        1.3124411370        3.0760575960
 H         -0.3791853756       -0.2687000854        3.3240597944
 H         -2.6135285746       -0.8159813300       -2.7851532508
 H         -1.6155574012        1.3446030874        1.2061082796
 H         -1.9103492229       -0.3583141117        1.4665204885
 H         -0.0789849332       -2.0440150556        0.7005623910
 H          2.0634462603       -2.0733017421       -0.7916299428
 H          2.9528001612        0.2869308335       -1.2888013908
  16
        -25.45986394
 N         -0.8050981763        1.3291926961       -2.7331249453
 C         -1.1513150659        0.8099796610       -1.4205493616
 C          0.0239091651        0.2789101091       -0.6834724230
 C          0.4203148415       -1.0158612191       -0.6550091455
 C          1.5904695271       -1.2349655442        0.1279517955
 C          2.0786427246       -0.1059695539        0.6840087869
 S          1.1104052445        1.2599084264        0.2572351712
 Cl        -1.6401890172       -1.1988887572        1.6596441366
 H         -0.3710317807        0.6008431741       -3.2872632320
 H         -0.1156175998        2.0657400359       -2.6392527730
 H         -2.5943512212       -1.5088031210        2.5142427126
 H         -1.9119271543        0.0270729402       -1.5283713406
 H         -1.6251866591        1.6045978183       -0.8326268997
 H         -0.1050678053       -1.8027256934       -1.1735682260
 H          2.0376082247       -2.2088075671        0.2621825247
 H          2.9492521107       -0.0451453309        1.3091239017
