  16
  -25.467956760000000       0.26160521470280768      !mtd4
 N         -1.1849759207        0.1708986248        0.8725189149
 C         -0.5044790505       -0.2778702274       -0.3338947522
 C          0.9736375190       -0.2950970261       -0.1864388648
 C          1.7490144534       -1.3992595830       -0.0590280645
 C          3.1371270326       -1.1063022024        0.0816054747
 C          3.4075039650        0.2162484893        0.0621197172
 S          1.9586622545        1.1381056527       -0.1308078022
 Cl        -4.3606556089       -0.0192810225       -0.1230336820
 H         -0.8440905033        1.0942594394        1.1155029366
 H         -0.9162211648       -0.4274216011        1.6463561165
 H         -3.0900237561        0.0599951874        0.2816810675
 H         -0.7824296927        0.3763844680       -1.1693583148
 H         -0.8673919798       -1.2762163766       -0.6049454528
 H          1.3498032955       -2.4016071198       -0.0604375624
 H          3.8935620603       -1.8689994847        0.1930860670
 H          4.3832683458        0.6545676651        0.1527638717
  16
  -25.467953980000001       0.26083676014740947      !mtd3
 N         -1.1994035489        0.2683143287       -0.8245096301
 C         -0.4986904698       -0.3145827639        0.3108882671
 C          0.9766574803       -0.3137724457        0.1369041833
 C          1.7501775287       -1.3976002504       -0.1153802003
 C          3.1355479287       -1.0888852594       -0.2491662176
 C          3.4057026847        0.2253933215       -0.0998079990
 S          1.9600354716        1.1197203852        0.2106993308
 Cl        -4.3577140623       -0.0375609131        0.1970950828
 H         -0.9433821074       -0.2380662531       -1.6648467782
 H         -0.8629498538        1.2144116955       -0.9674804071
 H         -3.0941444010        0.0886935340       -0.2176777811
 H         -0.8583177870       -1.3381971508        0.4726099620
 H         -0.7612537516        0.2395746351        1.2196646165
 H          1.3514863181       -2.3957688027       -0.2090643623
 H          3.8902525224       -1.8346623445       -0.4505781490
 H          4.3795888917        0.6727515570       -0.1620374630
  16
  -25.467696969999999       0.19872622334175513      !mtd3
 N         -1.1722422533        0.4176230628        0.7367555110
 C         -0.5028674145       -0.3647953993       -0.2925979926
 C          0.9776812773       -0.3424628004       -0.1659724777
 C          1.7925783556       -1.4254578100       -0.1396944074
 C          3.1731586592       -1.0962236771       -0.0054930288
 C          3.3994801182        0.2325858157        0.0684687094
 S          1.9170607683        1.1154762328       -0.0269548455
 Cl        -4.3585663398       -0.0624625869       -0.1146283867
 H         -0.8360166635        1.3729411217        0.6920279266
 H         -0.8885091392        0.0753430602        1.6484762414
 H         -3.0827653707        0.1344086949        0.2291225282
 H         -0.7925755300        0.0143373219       -1.2803204868
 H         -0.8674022643       -1.3979587794       -0.2520339602
 H          1.4276321586       -2.4381909225       -0.2123908287
 H          3.9565824944       -1.8385948348        0.0328401985
 H          4.3620676015        0.6964299477        0.1720806130
  16
  -25.467324930000000       0.13405327647501553      !mtd2
 N         -1.2983042374       -1.0109176834        0.3547266038
 C         -0.5071947698        0.1387370249       -0.0653624781
 C          0.9649807833       -0.0737845794       -0.0186567863
 C          1.6104025478       -1.2171039057        0.3174783186
 C          3.0315218448       -1.1091446136        0.2681423903
 C          3.4606757516        0.1147170343       -0.1056005559
 S          2.1246641199        1.1672525902       -0.4072124132
 Cl        -4.3783001349        0.2296684595        0.0481568126
 H         -1.0320963878       -1.2795387377        1.2959858061
 H         -1.0803181470       -1.8052614529       -0.2365227252
 H         -3.1468554773       -0.2721210716        0.1743293947
 H         -0.7682078134        0.9985592742        0.5638741581
 H         -0.8004728098        0.4205288636       -1.0834698053
 H          1.0997021142       -2.1252597977        0.5957271781
 H          3.6949086937       -1.9271510015        0.5072690651
 H          4.4872567038        0.4119401444       -0.2069036636
  16
  -25.466740080000001        7.2193647230337041E-002 !mtd4
 N         -1.6338326034        1.1425581871        1.1737933241
 C         -0.5722948753        0.3288356531        1.7554947961
 C          0.5120375679        0.0420110570        0.7811216314
 C          0.6573068826       -1.1005881569        0.0670703743
 C          1.7809499180       -1.0846225021       -0.8099841284
 C          2.4814075392        0.0683349083       -0.7578161119
 S          1.7761241707        1.1666333562        0.3746998082
 Cl        -2.5639815658       -0.9142485509       -1.2816844562
 H         -1.2385069796        2.0089978910        0.8247218844
 H         -2.3179999385        1.4006459591        1.8776293758
 H         -2.1885373959       -0.0859688629       -0.3036927538
 H         -0.9991232915       -0.6153933081        2.1150139121
 H         -0.1442720086        0.8269750200        2.6342628869
 H         -0.0217218757       -1.9351622336        0.1482756540
 H          2.0399633691       -1.9126134042       -1.4531841800
 H          3.3587017420        0.2913596181       -1.3349617576
  16
  -25.465582139999999        2.1200524432999225E-002 !mtd2
 N         -1.7453823421       -1.5779417803       -0.6591287191
 C         -0.6533271129       -1.1032753508       -1.5020428240
 C          0.5232258052       -0.6589462910       -0.7114543551
 C          1.3357357460       -1.4676707925        0.0095889765
 C          2.3795932509       -0.7707067305        0.6859797388
 C          2.3553895985        0.5623323125        0.4742471342
 S          1.0464891911        0.9958432266       -0.5665710604
 Cl        -2.2697611861        1.1407019158        1.2092850753
 H         -1.4279332571       -2.3610529103       -0.0974604797
 H         -2.5138625674       -1.9236220454       -1.2250810132
 H         -2.0477150256        0.0570527863        0.4615808787
 H         -1.0119813923       -0.2616698210       -2.1071210965
 H         -0.3444218125       -1.8819553596       -2.2104011995
 H          1.1992916393       -2.5363310599        0.0675120810
 H          3.1137395688       -1.2637090492        1.3059306560
 H          3.0464679977        1.2723306488        0.8874482508
  16
  -25.465578399999998        2.1116786017792707E-002 !mtd2
 N         -1.6162747444       -0.9393249491        1.5719271751
 C         -0.4590689703       -0.1195289598        1.9143258826
 C          0.6155359719       -0.1973891077        0.8916146170
 C          1.3731134483       -1.2890708817        0.6299661379
 C          2.3201784952       -1.0883200225       -0.4167597079
 C          2.2780126949        0.1540235864       -0.9433358039
 S          1.0712145357        1.1121924473       -0.1622381314
 Cl        -2.4231707924        0.3966351054       -1.3812855202
 H         -2.3102209995       -0.9103146595        2.3120637564
 H         -1.3333887961       -1.9096471803        1.4820823205
 H         -2.0883740616       -0.1349887467       -0.2030785947
 H         -0.0541879462       -0.4101753804        2.8923496093
 H         -0.7800845158        0.9240427534        2.0121695407
 H          1.2636069740       -2.2210843210        1.1623168136
 H          3.0004707090       -1.8566595549       -0.7532363509
 H          2.9009943727        0.5156683192       -1.7392833810
  16
  -25.464619630000001        7.6561006598597258E-003 !input
 N         -1.6571541843        1.3850775422        0.6980818679
 C         -0.6932813644        1.5272566468       -0.3892321469
 C          0.4932911052        0.6469073116       -0.2262301713
 C          0.4695168493       -0.7066358000       -0.1867154049
 C          1.7548390933       -1.2972995521       -0.0162738848
 C          2.7498268250       -0.3895401951        0.0743818289
 S          2.1288499300        1.2183981140       -0.0475087918
 Cl        -2.8245076197       -1.6543706931       -0.0002810047
 H         -2.3756519755        2.0996614703        0.6380886855
 H         -1.1844392765        1.5278513885        1.5836986988
 H         -2.3848755665       -0.4268100717        0.2924196974
 H         -0.3569433028        2.5692267057       -0.4682352532
 H         -1.1880156901        1.2925128203       -1.3387808947
 H         -0.4408588899       -1.2792177354       -0.2624612312
 H          1.9123076576       -2.3644222135        0.0366046162
 H          3.7908504741       -0.6165932858        0.2055325732
  16
  -25.464596069999999        7.4675855804873263E-003 !mtd2
 N         -1.6838639953        1.5227733642       -0.0248904861
 C         -0.6438359891        1.2728906701        0.9687943778
 C          0.5163323767        0.5271941131        0.4142115815
 C          0.4707158577       -0.7180910728       -0.1162655147
 C          1.7330879172       -1.1906072545       -0.5779134997
 C          2.7324896658       -0.3012876650       -0.3975273884
 S          2.1440742643        1.1431650330        0.3462408335
 Cl        -2.8390970919       -1.5771457586       -0.4176033186
 H         -1.2735348036        1.9860200862       -0.8280220496
 H         -2.3879300281        2.1553220330        0.3422667258
 H         -2.4056911007       -0.3220051389       -0.2670566621
 H         -1.0737571611        0.7026243099        1.8011991135
 H         -0.2889149822        2.2188167494        1.3965245257
 H         -0.4404374523       -1.2892100943       -0.1934196242
 H          1.8714655680       -2.1624521642       -1.0281642459
 H          3.7589859717       -0.4525532603       -0.6730311974
  16
  -25.464586279999999        7.3906227739840430E-003 !mtd5
 N         -1.6305356566       -1.5852407377       -0.4925250332
 C         -0.6714374307       -1.6321516300        0.6058193094
 C          0.5995063371       -0.9300678738        0.2847824392
 C          1.8246750846       -1.5095839011        0.2655412537
 C          2.8752265144       -0.6121214792       -0.0790935506
 C          2.4421936920        0.6425195119       -0.3202026714
 S          0.7281391143        0.7584595470       -0.1314451861
 Cl        -2.4570612047        1.5835310613        0.0492327987
 H         -2.4110390393       -2.2123752004       -0.3231041736
 H         -1.1842704214       -1.9024537354       -1.3459569668
 H         -2.1190076470        0.3138787136       -0.1826872832
 H         -0.4545385576       -2.6732193063        0.8784720173
 H         -1.1212074531       -1.1726042504        1.4934923882
 H          1.9855271823       -2.5527135337        0.4893132210
 H          3.9116556831       -0.9093526029       -0.1399659171
 H          3.0644076784        1.4731335680       -0.5948872716
  16
  -25.464562520000001        7.2071190502749531E-003 !mtd2
 N         -1.5382489745       -1.1909894263        1.2770841578
 C         -0.6918555191       -1.7201858734        0.2130875199
 C          0.5886404145       -0.9762053022        0.0784313991
 C          1.8222699915       -1.5199058163        0.2190660072
 C          2.8816299242       -0.5842072800        0.0455952262
 C          2.4469221522        0.6638148230       -0.2249828900
 S          0.7204470256        0.7265309249       -0.2741635966
 Cl        -2.4839645765        1.4674006117       -0.4731577604
 H         -1.0030328285       -1.1270192865        2.1358239092
 H         -2.3181528403       -1.8130578198        1.4671912260
 H         -2.0954159406        0.4091691723        0.2404866613
 H         -1.2378032082       -1.6704990610       -0.7368316056
 H         -0.4800082789       -2.7825469837        0.3873708994
 H          1.9833500711       -2.5630543773        0.4426355157
 H          3.9253070655       -0.8504119096        0.1239001322
 H          3.0745992637        1.5188343266       -0.3907662451
  16
  -25.461177039999999        2.0040235117240148E-004 !mtd3
 N         -1.6278518949       -0.9233619424        1.6265702340
 C         -0.4052697102       -0.2347791554        2.0108580985
 C          0.6313442059       -0.2589204157        0.9461694046
 C          1.4184237327       -1.3178809916        0.6404192552
 C          2.3087754224       -1.0714510908       -0.4454825787
 C          2.1941438943        0.1721477740       -0.9583451261
 S          0.9867171374        1.0770585544       -0.1162128359
 Cl        -2.3868620479        0.4551127894       -1.4216598662
 H         -1.4374472519       -1.9025485846        1.4491289918
 H         -1.9668379232       -0.5370613803        0.7514119738
 H         -1.1443230753        0.6868520678       -1.0097950767
 H         -0.0087853150       -0.6801736815        2.9313223738
 H         -0.6463793125        0.8042836169        2.2634560664
 H          1.3680830564       -2.2578909687        1.1674820121
 H          3.0038563366       -1.8091922618       -0.8181868301
 H          2.7680074716        0.5643382133       -1.7765389204
  16
  -25.460599469999998        1.0876020524968115E-004 !mtd6
 N         -0.1598089023        0.8995814189       -3.1667430675
 C         -0.6790070995        0.0529835279       -2.1058213388
 C          0.2863630945       -0.1285466114       -0.9911637905
 C          1.0275192281       -1.2377212646       -0.7524555742
 C          1.8818351308       -1.1180642583        0.3826182530
 C          1.7874443729        0.0801625528        0.9974758955
 S          0.6384841391        1.0937479115        0.1972002009
 Cl        -2.0582970050       -0.4970140319        2.1353121686
 H          0.6969601174        0.5049551894       -3.5368962884
 H          0.0825525708        1.8083319477       -2.7908479362
 H         -1.0519609618       -0.0219171943        1.4153690956
 H         -0.9592455544       -0.9213270628       -2.5244658916
 H         -1.6082639112        0.4886919988       -1.7205514945
 H          0.9770891686       -2.1222632634       -1.3681912262
 H          2.5401429006       -1.9082004555        0.7122587904
 H          2.3430601735        0.3808855615        1.8655928746
  16
  -25.460165409999998        6.8705238905850507E-005 !mtd6
 N         -1.7176207189        0.4081343450       -1.7197581952
 C         -0.5759483038       -0.4423535473       -2.0182669274
 C          0.4973070436       -0.3704784941       -0.9905420062
 C          1.2866308712       -1.4026933121       -0.6038861485
 C          2.2231379682       -1.0569629807        0.4139009092
 C          2.1460957684        0.2363802067        0.7926638275
 S          0.9200022590        1.0655642882       -0.0989170803
 Cl        -2.0829208592       -0.0056508196        1.7294685515
 H         -1.4407143703        1.3823179086       -1.7510538910
 H         -2.0203318263        0.2346165319       -0.7677272823
 H         -0.9212306412        0.3000284904        1.1641880889
 H         -0.1683610360       -0.1756990032       -3.0009455941
 H         -0.9263642369       -1.4768813057       -2.1125831987
 H          1.2054839043       -2.3932236241       -1.0239370612
 H          2.9231471985       -1.7623517472        0.8367479431
 H          2.7579248279        0.7047921316        1.5403211439
  16
  -25.460156439999999        6.8056173587024570E-005 !mtd3
 N         -1.6078601021        0.1213661375        1.8630122600
 C         -0.4547833433       -0.7608052235        1.9526073068
 C          0.5553004113       -0.5210436525        0.8869929137
 C          1.3170739037       -1.4745197365        0.2966380487
 C          2.1920669330       -0.9670799024       -0.7079945813
 C          2.0965215749        0.3691742007       -0.8732777956
 S          0.9283833159        1.0400626002        0.2088947256
 Cl        -2.1860890258        0.2603016622       -1.5783301353
 H         -1.9685279546        0.1005050272        0.9156578158
 H         -1.3245827959        1.0794099519        2.0325873200
 H         -0.9902258338        0.4776972996       -1.0441227955
 H         -0.8045631293       -1.7992387053        1.9011484687
 H          0.0120749228       -0.6529772656        2.9384659274
 H          1.2581132817       -2.5193149076        0.5594055341
 H          2.8633018910       -1.5927134768       -1.2775170090
 H          2.6642394488        0.9532318572       -1.5727785236
  16
  -25.459870290000001        5.0276159192658090E-005 !mtd3
 N         -0.8073341763        0.5803903300        2.9738121634
 C         -1.1472636671        0.4218786770        1.5697353340
 C          0.0305523274        0.0953829594        0.7256027294
 C          0.4380376743       -1.1507817417        0.3860345562
 C          1.6079981867       -1.1644014102       -0.4272130303
 C          2.0847709247        0.0696083068       -0.6957346054
 S          1.1059926434        1.2837569926        0.0479566390
 Cl        -1.6540917001       -0.7302859036       -1.8857507727
 H         -0.1150630803        1.3124411370        3.0760575960
 H         -0.3791853756       -0.2687000854        3.3240597944
 H         -2.6135285746       -0.8159813300       -2.7851532508
 H         -1.6155574012        1.3446030874        1.2061082796
 H         -1.9103492229       -0.3583141117        1.4665204885
 H         -0.0789849332       -2.0440150556        0.7005623910
 H          2.0634462603       -2.0733017421       -0.7916299428
 H          2.9528001612        0.2869308335       -1.2888013908
  16
  -25.459863940000002        4.9939459169594414E-005 !mtd6
 N         -0.8050981763        1.3291926961       -2.7331249453
 C         -1.1513150659        0.8099796610       -1.4205493616
 C          0.0239091651        0.2789101091       -0.6834724230
 C          0.4203148415       -1.0158612191       -0.6550091455
 C          1.5904695271       -1.2349655442        0.1279517955
 C          2.0786427246       -0.1059695539        0.6840087869
 S          1.1104052445        1.2599084264        0.2572351712
 Cl        -1.6401890172       -1.1988887572        1.6596441366
 H         -0.3710317807        0.6008431741       -3.2872632320
 H         -0.1156175998        2.0657400359       -2.6392527730
 H         -2.5943512212       -1.5088031210        2.5142427126
 H         -1.9119271543        0.0270729402       -1.5283713406
 H         -1.6251866591        1.6045978183       -0.8326268997
 H         -0.1050678053       -1.8027256934       -1.1735682260
 H          2.0376082247       -2.2088075671        0.2621825247
 H          2.9492521107       -0.0451453309        1.3091239017
