16
 energy: -25.473338886771 gnorm: 0.000453339189 xtb: 6.5.1 (fef0646)
N            1.46824575720529       -0.49388315108241       -0.29657743924226
C            2.77723136633119       -0.03027162280979        0.18189670100337
C            3.07764692023269        1.31616077682913       -0.38565506795025
C            2.69002130895970        2.53380596409754        0.07809445448431
C            3.12045673560958        3.59979079669683       -0.74329891278443
C            3.82420295948113        3.17739140298501       -1.82240883245776
S            3.97740761969735        1.46696139187620       -1.86324053040473
Cl          -0.64853269535053        1.27423123315439        0.73232842049801
H            1.26457883769214       -1.42444995322420        0.05151215314312
H            1.44544052758109       -0.51123709125094       -1.31132503899795
H            0.33719740375328        0.47428871810218        0.24053167904809
H            3.58258659287823       -0.72821732870310       -0.08596339415564
H            2.71908784529538        0.03770835956106        1.27154960259765
H            2.10980503431742        2.66337984757998        0.97275316514536
H            2.91331359938264        4.63415773889005       -0.53650885791700
H            4.26844018693337        3.76053291729859       -2.60432810200967
