11
 energy: -10.951259622069 gnorm: 0.000203303471 xtb: 6.5.1 (fef0646)
N            0.95820748271139        0.01474820595550       -0.08536761011443
C            2.44382772317696        0.03123528867691       -0.09165304591986
C            2.94844869520493        1.36755399889657       -0.60835853032679
H            0.60033678036914       -0.88308121973776        0.25948932691263
H            0.60177356774810        0.17131470068221       -1.03581278392169
H            0.60213717205888        0.76689124228392        0.51654410827483
H            2.80519514301236       -0.77554202474589       -0.72855605813478
H            2.80486055634304       -0.13738920154256        0.92247361805988
H            2.61542782680134        1.54811241622290       -1.62681996019359
H            4.03398612177707        1.37533707822717       -0.61053231531589
H            2.61402893079680        2.18653951508103        0.02263325067969
