  15
        -16.24021256
 N         -1.8096701815       -0.0000266844        0.1957289882
 C         -0.4694800504       -0.0000879413       -0.4696640678
 C          0.5114915802       -1.0859957414        0.0327089857
 C          1.6086579940        0.0000795565        0.1357424403
 C          0.5112651345        1.0859880032        0.0326078582
 H         -2.3411722515       -0.8305775407       -0.0757656047
 H         -2.3401829599        0.8318895739       -0.0735784550
 H         -1.7088088825       -0.0012153752        1.2141189078
 H         -0.5645631158       -0.0001679055       -1.5692296076
 H          0.7216747170       -1.8834659739       -0.6917817101
 H          0.2156521753       -1.5092541066        0.9987496793
 H          2.3043495219        0.0000342464       -0.7130059787
 H          2.1615376636        0.0004828357        1.0846324027
 H          0.7213934439        1.8834663478       -0.6918896064
 H          0.2154854463        1.5093708644        0.9986457328
