  15
  -16.131967240000002       0.28226068402210053      !mtd5
 N         -1.8086207871       -0.0000109365        0.1953241526
 C         -0.4716359052        0.0000828238       -0.4688730784
 C          0.5126355450       -1.0865853544        0.0320199985
 C          1.6090769096        0.0000085941        0.1361352170
 C          0.5126410111        1.0865221512        0.0320499130
 H         -2.3519899064       -0.8327420457       -0.0715129060
 H         -2.3531837840        0.8310230953       -0.0736914676
 H         -1.7183939541        0.0014216375        1.2201960916
 H         -0.5683548447        0.0000998105       -1.5700183038
 H          0.7236665876       -1.8840871018       -0.6941276306
 H          0.2172881019       -1.5136688870        0.9983966442
 H          2.3080542009        0.0000343096       -0.7120308846
 H          2.1636453954        0.0000953098        1.0856466096
 H          0.7233788197        1.8840681157       -0.6941090363
 H          0.2173420675        1.5135715092        0.9985253539
  15
  -16.131961980000000       0.28069395578649042      !md1
 N         -1.8087434851        0.0000358180        0.1950461798
 C         -0.4715700284        0.0000440252       -0.4687746292
 C          0.5126570759       -1.0865506700        0.0324123009
 C          1.6091918770        0.0000152972        0.1355722243
 C          0.5125851166        1.0864249903        0.0324657310
 H         -2.3526260484        0.8320993873       -0.0728279624
 H         -1.7187703283       -0.0001869901        1.2198642160
 H         -2.3527253396       -0.8317238151       -0.0732042545
 H         -0.5679537276        0.0001062708       -1.5699506482
 H          0.7233196445       -1.8843832103       -0.6934803763
 H          0.2175029374       -1.5130204049        0.9991222344
 H          2.3074153892        0.0000755870       -0.7132202930
 H          2.1646505851       -0.0000550117        1.0845729540
 H          0.7231090341        1.8845556022       -0.6931282651
 H          0.2174900716        1.5128255957        0.9992954718
  15
  -16.131959569999999       0.27997902815629533      !md2
 N         -1.8087452264        0.0000260933        0.1950610588
 C         -0.4715640121        0.0000548013       -0.4687775474
 C          0.5126461387       -1.0865464950        0.0324031715
 C          1.6091911187        0.0000095845        0.1355940294
 C          0.5125898190        1.0864510312        0.0324507233
 H         -1.7188443404        0.0013466243        1.2200518550
 H         -2.3519228313       -0.8325293787       -0.0720136166
 H         -2.3532003191        0.8311649964       -0.0741519372
 H         -0.5679221570        0.0000942472       -1.5699577157
 H          0.7232934752       -1.8844257590       -0.6934559789
 H          0.2174346157       -1.5130457439        0.9990914624
 H          2.3073155947        0.0000443248       -0.7132952539
 H          2.1645719046        0.0000860829        1.0846366443
 H          0.7232210961        1.8844129661       -0.6932914600
 H          0.2175010194        1.5128593749        0.9992848723
  15
  -16.130395419999999        5.3492381378164700E-002 !mtd4
 N         -1.6977756919        0.0000473275        0.3632957126
 C         -0.5027471092        0.0000190955       -0.5300785985
 C          0.5525989832       -1.0881528649       -0.2058464971
 C          1.4240857903       -0.0000158188        0.4650182629
 C          0.5524683833        1.0879919371       -0.2057964377
 H         -1.4236019989       -0.0024807672        1.3549847906
 H         -2.2834795469       -0.8298142729        0.1961126026
 H         -2.2805784333        0.8326585527        0.1992407067
 H         -0.8053269202        0.0000584245       -1.5941476801
 H          1.0127262785       -1.5399448531       -1.0950250100
 H          0.1876652373       -1.8650222153        0.4787806812
 H          2.4770051632        0.0007165273        0.1465780673
 H          1.3610009651       -0.0000057243        1.5616047265
 H          1.0125949296        1.5401033269       -1.0948018145
 H          0.1874469952        1.8649520009        0.4787881433
  15
  -16.130366360000000        5.1872464358618524E-002 !mtd4
 N         -1.6972052587        0.0000354040        0.3639503018
 C         -0.5028090573        0.0000374493       -0.5303276122
 C          0.5528523615       -1.0879602908       -0.2067130502
 C          1.4229233069        0.0000045549        0.4662288839
 C          0.5527850016        1.0878556796       -0.2066677586
 H         -2.2812521215        0.8317519395        0.1991483882
 H         -1.4228475214       -0.0007320750        1.3554140606
 H         -2.2818580682       -0.8309233091        0.1980888326
 H         -0.8061324565        0.0000920160       -1.5941957783
 H          1.0140473200       -1.5382421365       -1.0961150375
 H          0.1878913797       -1.8660364404        0.4765534405
 H          2.4765816541        0.0001565243        0.1501891214
 H          1.3572415912       -0.0000144963        1.5626656074
 H          1.0139327601        1.5381983527       -1.0960438076
 H          0.1877196777        1.8660036965        0.4765642742
  15
  -16.130363240000001        5.1701486298330449E-002 !mtd1
 N         -1.6971872918        0.0000293830        0.3639887585
 C         -0.5028122376        0.0000538524       -0.5303305072
 C          0.5528771301       -1.0879372949       -0.2067770112
 C          1.4228390757        0.0000042524        0.4663106011
 C          0.5528184417        1.0878495834       -0.2067390601
 H         -2.2818361094       -0.8311157482        0.1984420858
 H         -2.2813035517        0.8314326452        0.1989488542
 H         -1.4227939370       -0.0003766237        1.3555214456
 H         -0.8061648433        0.0000740133       -1.5941878222
 H          1.0141630872       -1.5380559654       -1.0962119709
 H          0.1878922452       -1.8661369195        0.4763368177
 H          2.4765658210        0.0000344860        0.1504943209
 H          1.3569919387        0.0000013060        1.5627357290
 H          1.0140903267        1.5380299085       -1.0961306570
 H          0.1878175591        1.8660573847        0.4764584597
