  15
        -16.24021256
 N         -1.8096701815       -0.0000266844        0.1957289882
 C         -0.4694800504       -0.0000879413       -0.4696640678
 C          0.5114915802       -1.0859957414        0.0327089857
 C          1.6086579940        0.0000795565        0.1357424403
 C          0.5112651345        1.0859880032        0.0326078582
 H         -2.3411722515       -0.8305775407       -0.0757656047
 H         -2.3401829599        0.8318895739       -0.0735784550
 H         -1.7088088825       -0.0012153752        1.2141189078
 H         -0.5645631158       -0.0001679055       -1.5692296076
 H          0.7216747170       -1.8834659739       -0.6917817101
 H          0.2156521753       -1.5092541066        0.9987496793
 H          2.3043495219        0.0000342464       -0.7130059787
 H          2.1615376636        0.0004828357        1.0846324027
 H          0.7213934439        1.8834663478       -0.6918896064
 H          0.2154854463        1.5093708644        0.9986457328
  15
        -16.23855736
 N         -1.6968294857       -0.0000894807        0.3662137801
 C         -0.5010636596       -0.0000296576       -0.5319062958
 C          0.5523715814       -1.0871797082       -0.2083019738
 C          1.4197485937        0.0000851011        0.4692893351
 C          0.5522720927        1.0872337154       -0.2084630318
 H         -1.4109220838        0.0006211909        1.3491027401
 H         -2.2699809834       -0.8312143573        0.1985821691
 H         -2.2708761554        0.8302875328        0.1976430445
 H         -0.8056120594       -0.0001214066       -1.5935597366
 H          1.0158895274       -1.5332942251       -1.0970211523
 H          0.1872165667       -1.8651527464        0.4722676174
 H          2.4728811998        0.0000564027        0.1576472805
 H          1.3475115030        0.0002025573        1.5640782784
 H          1.0157953813        1.5332243533       -1.0972401767
 H          0.1870738320        1.8653298969        0.4719846501
