  15
  -16.240212560000000       0.28449458239673336      !mtd10
 N         -1.8096701815       -0.0000266844        0.1957289882
 C         -0.4694800504       -0.0000879413       -0.4696640678
 C          0.5114915802       -1.0859957414        0.0327089857
 C          1.6086579940        0.0000795565        0.1357424403
 C          0.5112651345        1.0859880032        0.0326078582
 H         -2.3411722515       -0.8305775407       -0.0757656047
 H         -2.3401829599        0.8318895739       -0.0735784550
 H         -1.7088088825       -0.0012153752        1.2141189078
 H         -0.5645631158       -0.0001679055       -1.5692296076
 H          0.7216747170       -1.8834659739       -0.6917817101
 H          0.2156521753       -1.5092541066        0.9987496793
 H          2.3043495219        0.0000342464       -0.7130059787
 H          2.1615376636        0.0004828357        1.0846324027
 H          0.7213934439        1.8834663478       -0.6918896064
 H          0.2154854463        1.5093708644        0.9986457328
  15
  -16.240210720000000       0.28394118803573520      !md1
 N         -1.8097853331       -0.0000460312        0.1955004186
 C         -0.4694059687       -0.0000804385       -0.4695689341
 C          0.5114533931       -1.0859076288        0.0330300403
 C          1.6087730440        0.0000784379        0.1352865039
 C          0.5112781601        1.0859566043        0.0329243770
 H         -2.3409416255        0.8309593701       -0.0752986301
 H         -1.7090425401        0.0004798910        1.2138416165
 H         -2.3406142289       -0.8315638829       -0.0745944375
 H         -0.5643373382       -0.0001844651       -1.5691557274
 H          0.7212310994       -1.8837994209       -0.6911244380
 H          0.2159267877       -1.5087404989        0.9993539748
 H          2.3038983182        0.0000858684       -0.7139247715
 H          2.1623107997        0.0001713845        1.0837949572
 H          0.7208242469        1.8837849011       -0.6913567417
 H          0.2157564849        1.5088867514        0.9992381341
  15
  -16.240210500000000       0.28387509340730899      !md3
 N         -1.8097412236       -0.0000818744        0.1955609595
 C         -0.4694116816       -0.0000489771       -0.4695758234
 C          0.5114223009       -1.0859327491        0.0329441931
 C          1.6087407633        0.0000768264        0.1354171449
 C          0.5112945111        1.0859898949        0.0328185250
 H         -1.7090623347        0.0006246938        1.2138916447
 H         -2.3403969494       -0.8316948685       -0.0743205452
 H         -2.3410006758        0.8308650026       -0.0753745315
 H         -0.5643866981       -0.0000721244       -1.5691568997
 H          0.7212908645       -1.8837211226       -0.6912953059
 H          0.2157405880       -1.5089151082        0.9991658892
 H          2.3040600450        0.0000371613       -0.7136279974
 H          2.1620824526        0.0002031286        1.0840407715
 H          0.7210605569        1.8836603809       -0.6915741322
 H          0.2156396010        1.5091377843        0.9989934314
  15
  -16.238557360000001        4.9362454715237501E-002 !mtd1
 N         -1.6968294857       -0.0000894807        0.3662137801
 C         -0.5010636596       -0.0000296576       -0.5319062958
 C          0.5523715814       -1.0871797082       -0.2083019738
 C          1.4197485937        0.0000851011        0.4692893351
 C          0.5522720927        1.0872337154       -0.2084630318
 H         -1.4109220838        0.0006211909        1.3491027401
 H         -2.2699809834       -0.8312143573        0.1985821691
 H         -2.2708761554        0.8302875328        0.1976430445
 H         -0.8056120594       -0.0001214066       -1.5935597366
 H          1.0158895274       -1.5332942251       -1.0970211523
 H          0.1872165667       -1.8651527464        0.4722676174
 H          2.4728811998        0.0000564027        0.1576472805
 H          1.3475115030        0.0002025573        1.5640782784
 H          1.0157953813        1.5332243533       -1.0972401767
 H          0.1870738320        1.8653298969        0.4719846501
  15
  -16.238554420000000        4.9209122175575735E-002 !md1
 N         -1.6967524227       -0.0000801539        0.3663030029
 C         -0.5010767276       -0.0000411055       -0.5319507317
 C          0.5524146790       -1.0871608487       -0.2084246591
 C          1.4195896308        0.0000831192        0.4694524266
 C          0.5522970902        1.0872028966       -0.2085799198
 H         -2.2701226672       -0.8310343095        0.1986418107
 H         -2.2706015362        0.8304182477        0.1979728325
 H         -1.4106000617        0.0004539945        1.3491827451
 H         -0.8057202172       -0.0001268931       -1.5935745222
 H          1.0161460799       -1.5329844826       -1.0971775719
 H          0.1872415652       -1.8653448977        0.4718944848
 H          2.4728356277        0.0001810144        0.1581819393
 H          1.3468573435        0.0001010668        1.5642068771
 H          1.0159470659        1.5330124230       -1.0973847080
 H          0.1871611786        1.8654359785        0.4717418651
  15
  -16.238552660000000        4.9117559269409028E-002 !md2
 N         -1.6967234533       -0.0000580932        0.3663182882
 C         -0.5010742255       -0.0000551906       -0.5319550593
 C          0.5524367891       -1.0871623002       -0.2084504647
 C          1.4195556734        0.0000836767        0.4694817752
 C          0.5522877078        1.0872016492       -0.2085955934
 H         -2.2697935083        0.8311533746        0.1989518265
 H         -1.4107418159       -0.0010419923        1.3491867916
 H         -2.2709162631       -0.8302937166        0.1976047502
 H         -0.8056807541       -0.0001912639       -1.5935922335
 H          1.0161847349       -1.5329771706       -1.0971987905
 H          0.1872983874       -1.8653715275        0.4718587884
 H          2.4728336961        0.0001236542        0.1583325587
 H          1.3467652434        0.0001781613        1.5642336528
 H          1.0159479932        1.5329981848       -1.0973978381
 H          0.1870672535        1.8654212307        0.4716899582
