  15
        -16.13196724
 N         -1.8086207871       -0.0000109365        0.1953241526
 C         -0.4716359052        0.0000828238       -0.4688730784
 C          0.5126355450       -1.0865853544        0.0320199985
 C          1.6090769096        0.0000085941        0.1361352170
 C          0.5126410111        1.0865221512        0.0320499130
 H         -2.3519899064       -0.8327420457       -0.0715129060
 H         -2.3531837840        0.8310230953       -0.0736914676
 H         -1.7183939541        0.0014216375        1.2201960916
 H         -0.5683548447        0.0000998105       -1.5700183038
 H          0.7236665876       -1.8840871018       -0.6941276306
 H          0.2172881019       -1.5136688870        0.9983966442
 H          2.3080542009        0.0000343096       -0.7120308846
 H          2.1636453954        0.0000953098        1.0856466096
 H          0.7233788197        1.8840681157       -0.6941090363
 H          0.2173420675        1.5135715092        0.9985253539
