  24
        -32.25719425
 N         -3.8046428508       -0.5226478783        0.8186124815
 C         -3.1181456303       -0.3439803580       -0.4962545878
 C         -1.6819297702        0.0445720025       -0.3415255335
 C         -1.3268945279        1.3854622406       -0.2014942738
 C         -0.0111826010        1.7620876056       -0.0298766835
 C         -0.6921063720       -0.9243092964       -0.2951433118
 C          0.6605743329       -0.5801675866       -0.1232846160
 C          1.0108609123        0.7982096268        0.0123021237
 C          2.3637067442        1.1426573470        0.1839540756
 C          3.3373304420        0.1665060516        0.2203477525
 C          2.9976427006       -1.1722340267        0.0886677809
 C          1.6810865703       -1.5471895895       -0.0806534167
 H         -4.7883419134       -0.7871416217        0.6983787833
 H         -3.7696430996        0.3459979745        1.3619599320
 H         -3.3400551876       -1.2522858455        1.3687999434
 H         -3.6409572292        0.4169067229       -1.0857622384
 H         -3.1872421653       -1.2699667753       -1.0772633469
 H         -2.0979083936        2.1361234043       -0.2304077438
 H          0.2437753526        2.8026108916        0.0738193799
 H         -0.9602757547       -1.9606799276       -0.3937868332
 H          2.6332168879        2.1797134372        0.2869838450
 H          4.3701991168        0.4454674438        0.3521878069
 H          3.7689371619       -1.9246763912        0.1186811301
 H          1.4238632740       -2.5874159947       -0.1826278577
  24
        -32.25568082
 N         -3.5891903400       -1.3983620953        0.0876820299
 C         -3.1964553375        0.0358410668       -0.0766959930
 C         -1.7192499538        0.2926615150       -0.0643227594
 C         -1.2525180002        1.6039538914       -0.1656945002
 C          0.0970150262        1.8896425111       -0.1616906278
 C         -0.7967531291       -0.7356152405        0.0404396314
 C          0.5871273798       -0.4875838334        0.0477991964
 C          1.0476361692        0.8601743112       -0.0555532894
 C          2.4320737685        1.1082747590       -0.0473384545
 C          3.3305214584        0.0670696415        0.0583605181
 C          2.8829193658       -1.2425096506        0.1582381383
 C          1.5324340509       -1.5232934570        0.1536386412
 H         -3.2140971510       -1.9701098758       -0.6773695830
 H         -4.6095995047       -1.5045063326        0.0827871213
 H         -3.2418093572       -1.7718369177        0.9780406264
 H         -3.6627004909        0.6262193542        0.7197909625
 H         -3.6118450265        0.4142824312       -1.0172063275
 H         -1.9664553176        2.4056201986       -0.2488669475
 H          0.4336053625        2.9089869120       -0.2402153555
 H         -1.1361774448       -1.7503540894        0.1191333619
 H          2.7853011267        2.1222182235       -0.1245739663
 H          4.3888943299        0.2719094501        0.0634495938
 H          3.5965413145       -2.0462999043        0.2399290761
 H          1.1911256674       -2.5412347016        0.2310455938
  24
        -32.25483745
 N         -4.1305136617        0.3161831630       -0.0433023569
 C         -3.0590977772       -0.7275084918       -0.0769705000
 C         -1.6551132763       -0.2025362166       -0.0223841568
 C         -1.3764683059        1.1573220080        0.1081153703
 C         -0.0798781344        1.6257318762        0.1602246222
 C         -0.5958420002       -1.0947198962       -0.1000226278
 C          0.7403155078       -0.6586509403       -0.0517519708
 C          1.0064461659        0.7380987706        0.0821850643
 C          2.3423491268        1.1755543966        0.1300036840
 C          3.3801318221        0.2707933465        0.0485495462
 C          3.1222608714       -1.0862521055       -0.0818196314
 C          1.8245447479       -1.5511335406       -0.1319222040
 H         -4.0880128958        0.8567401964        0.8278161798
 H         -5.0625766152       -0.1088223628       -0.0993705683
 H         -4.0343966888        0.9616420477       -0.8350344663
 H         -3.1744423483       -1.3252344666       -0.9878837409
 H         -3.2087096089       -1.4192934304        0.7593091751
 H         -2.1893490322        1.8572220923        0.1691727589
 H          0.1101109839        2.6803531808        0.2613062213
 H         -0.7990874522       -2.1459293830       -0.1997643627
 H          2.5483920071        2.2273102291        0.2309667585
 H          4.3993390986        0.6199203834        0.0869454116
 H          3.9429275567       -1.7824204858       -0.1440326506
 H          1.6311444091       -2.6052233753       -0.2328095363
