  24
  -32.149907499999998       0.13869361447023928      !mtd4
 N          3.8240556165        0.4885133411       -0.8083942191
 C          3.1166485902        0.3664639013        0.4973977057
 C          1.6828995327       -0.0286979830        0.3369301678
 C          1.3339286425       -1.3709870058        0.2045665953
 C          0.0168323762       -1.7550852780        0.0358541090
 C          0.6849741186        0.9366280785        0.2815367133
 C         -0.6662950844        0.5840349619        0.1145856222
 C         -1.0097566100       -0.7971044678       -0.0105877997
 C         -2.3610630114       -1.1502955700       -0.1750285468
 C         -3.3429141578       -0.1786115518       -0.2140570121
 C         -3.0105482136        1.1613598450       -0.0922086022
 C         -1.6924611486        1.5448141691        0.0696975451
 H          3.8093001090       -0.4048106300       -1.3217697251
 H          4.8107994380        0.7639593141       -0.6876153007
 H          3.3724447933        1.1947248481       -1.4078443521
 H          3.1783370526        1.3169850688        1.0400665515
 H          3.6306076271       -0.3682101452        1.1283846104
 H          2.1088256751       -2.1192303297        0.2386851189
 H         -0.2335981580       -2.7989114884       -0.0593968356
 H          0.9482477238        1.9762004978        0.3722383230
 H         -2.6260763783       -2.1905688427       -0.2693529507
 H         -4.3760466443       -0.4650230915       -0.3393846545
 H         -3.7870530866        1.9103915612       -0.1228534829
 H         -1.4416170160        2.5882766293        0.1659810895
  24
  -32.149907030000001       0.13862465213380540      !md4
 N          3.8010733444        0.4869724957        0.9087088079
 C          3.1285300037        0.3676118371       -0.4156225758
 C          1.6910991599       -0.0280143129       -0.2939794282
 C          1.3386785430       -1.3707858476       -0.1764388691
 C          0.0176301026       -1.7552950844       -0.0433300719
 C          0.6922015190        0.9372930202       -0.2600939759
 C         -0.6629505819        0.5843094232       -0.1293854086
 C         -1.0096894948       -0.7972756968       -0.0190594732
 C         -2.3647907983       -1.1508226189        0.1094599819
 C         -3.3471612510       -0.1790486548        0.1278600545
 C         -3.0116027964        1.1613541618        0.0203745959
 C         -1.6897739319        1.5451582685       -0.1063566332
 H          3.7732046994       -0.4075480081        1.4194493417
 H          3.3333678780        1.1915824143        1.4976282725
 H          4.7905170018        0.7631518258        0.8146938234
 H          3.6591467428       -0.3656440568       -1.0343361956
 H          3.2043799836        1.3192977479       -0.9544618197
 H          2.1140940939       -2.1190703806       -0.1938158713
 H         -0.2352864866       -2.7994640549        0.0409686910
 H          0.9578769118        1.9771830973       -0.3394280225
 H         -2.6322698682       -2.1914254729        0.1925097856
 H         -4.3831854297       -0.4657136921        0.2257114770
 H         -3.7885146990        1.9104578152        0.0346279985
 H         -1.4363942014        2.5889678133       -0.1915896728
  24
  -32.149906870000002       0.13860118341807551      !gc
 N          3.8008946847        0.4875599233        0.9087117808
 C          3.1285639449        0.3673754864       -0.4156528430
 C          1.6911205103       -0.0281981596       -0.2939929342
 C          1.3386416779       -1.3709447541       -0.1763273363
 C          0.0175740535       -1.7553843583       -0.0432038090
 C          0.6922671743        0.9371554648       -0.2601845079
 C         -0.6629000384        0.5842443796       -0.1294406750
 C         -1.0097036549       -0.7973173141       -0.0190263691
 C         -2.3648231929       -1.1507919686        0.1095008478
 C         -3.3471457559       -0.1789685784        0.1278598327
 C         -3.0115208818        1.1614135665        0.0203231231
 C         -1.6896742956        1.5451459231       -0.1064389723
 H          3.3331844205        1.1924650431        1.4970232180
 H          4.7903695269        0.7636468119        0.8146834121
 H          3.7729065346       -0.4067528194        1.4200852289
 H          3.6592954639       -0.3662509653       -1.0338282059
 H          3.2044778465        1.3187299263       -0.9550686447
 H          2.1140249390       -2.1192649590       -0.1936128730
 H         -0.2353903123       -2.7995350729        0.0411787127
 H          0.9579937282        1.9770273988       -0.3395841279
 H         -2.6323541367       -2.1913781124        0.1925915938
 H         -4.3831835033       -0.4655781732        0.2257300756
 H         -3.7883937061        1.9105578588        0.0345663370
 H         -1.4362411205        2.5889396205       -0.1917071444
  24
  -32.149906719999997       0.13857918510463374      !gc
 N          3.8219224711        0.4937963417       -0.8091862809
 C          3.1170396028        0.3644642320        0.4972665894
 C          1.6831409736       -0.0303227744        0.3372962566
 C          1.3335348494       -1.3725066736        0.2054252870
 C          0.0162413916       -1.7560287257        0.0369450209
 C          0.6856893599        0.9354509838        0.2815395840
 C         -0.6657396131        0.5834611318        0.1146347123
 C         -1.0098778566       -0.7975617100       -0.0099482446
 C         -2.3613250617       -1.1501262444       -0.1745740639
 C         -3.3426479844       -0.1779366415       -0.2144381599
 C         -3.0096153869        1.1619220224       -0.0931921036
 C         -1.6913822321        1.5447595244        0.0689590705
 H          4.8086090474        0.7690875244       -0.6887994884
 H          3.3688067414        1.2029089214       -1.4040780172
 H          3.8066443127       -0.3969496353       -1.3272779248
 H          3.1793206599        1.3120766899        1.0449359648
 H          3.6324901011       -0.3733629916        1.1233368554
 H          2.1080620156       -2.1211289167        0.2397060203
 H         -0.2346910712       -2.7997725143       -0.0578937079
 H          0.9495160724        1.9749233194        0.3717643928
 H         -2.6268542478       -2.1903058904       -0.2684723251
 H         -4.3758912610       -0.4638508852       -0.3399730907
 H         -3.7857092917        1.9113544474       -0.1245056098
 H         -1.4400100165        2.5881362691        0.1647751786
  24
  -32.149906549999997       0.13855425790443968      !md3
 N          3.8212098598        0.4951047389       -0.8095881457
 C          3.1171659552        0.3639740550        0.4971392228
 C          1.6832120006       -0.0307317704        0.3374928539
 C          1.3334393884       -1.3728948558        0.2058217353
 C          0.0161023482       -1.7562698912        0.0373468406
 C          0.6858796480        0.9351540523        0.2816440775
 C         -0.6655863138        0.5833162095        0.1147301212
 C         -1.0098853459       -0.7976728809       -0.0097830518
 C         -2.3613477004       -1.1500694514       -0.1746429559
 C         -3.3425379572       -0.1777542936       -0.2147194705
 C         -3.0093594938        1.1620643226       -0.0934275239
 C         -1.6911036921        1.5447406485        0.0689166302
 H          3.3676714109        1.2048138538       -1.4031977142
 H          3.8057263320       -0.3949834976       -1.3288172644
 H          4.8080633304        0.7704271114       -0.6894633230
 H          3.1796728660        1.3108661557        1.0460287646
 H          3.6330897345       -0.3746250162        1.1219065433
 H          2.1078685652       -2.1216138870        0.2402157215
 H         -0.2349592599       -2.7999936782       -0.0573713556
 H          0.9498404018        1.9746007376        0.3717716955
 H         -2.6269888533       -2.1902152371       -0.2686010341
 H         -4.3757920792       -0.4635385764       -0.3404603118
 H         -3.7853549495        1.9115932556       -0.1248680957
 H         -1.4396143180        2.5880872719        0.1647551984
  24
  -32.149906029999997       0.13847803782827547      !mtd1
 N          3.7986976762        0.4943476425        0.9088956348
 C          3.1289903688        0.3646137021       -0.4158925422
 C          1.6913914860       -0.0303447549       -0.2941573378
 C          1.3382065137       -1.3728221415       -0.1753894150
 C          0.0169263263       -1.7564423947       -0.0419974845
 C          0.6930674035        0.9355587469       -0.2610839012
 C         -0.6622816243        0.5834895002       -0.1299907298
 C         -1.0098324066       -0.7977990859       -0.0185183108
 C         -2.3651414901       -1.1504301980        0.1103318396
 C         -3.3469252970       -0.1780489200        0.1280321932
 C         -3.0105688759        1.1620684045        0.0194815282
 C         -1.6885211667        1.5449750041       -0.1076666340
 H          4.7882488945        0.7696145293        0.8148491425
 H          3.7695631734       -0.3962625021        1.4266405317
 H          3.3298505215        1.2036190437        1.4912653429
 H          3.6611113772       -0.3732464282       -1.0277988575
 H          3.2056917535        1.3121215082       -0.9619323626
 H          2.1131810303       -2.1215834390       -0.1919845656
 H         -0.2366058976       -2.8003920512        0.0431714199
 H          0.9593857507        1.9752141143       -0.3413231588
 H         -2.6332443935       -2.1908062154        0.1942067080
 H         -4.3831154764       -0.4640116962        0.2261780360
 H         -3.7870255224        1.9116533457        0.0332128236
 H         -1.4345181610        2.5885589301       -0.1937988798
  24
  -32.149821180000004       0.12658625191231690      !mtd8
 N          3.7484027051        0.6602912688        0.8955627849
 C          3.1392271535        0.2974054599       -0.4149952543
 C          1.6979080548       -0.0825854199       -0.2900202162
 C          1.3270454368       -1.4182705449       -0.1469828784
 C          0.0003707046       -1.7819740617       -0.0109399991
 C          0.7123433922        0.8962868568       -0.2774143890
 C         -0.6475913886        0.5647977782       -0.1411676681
 C         -1.0136965875       -0.8095912693       -0.0065455286
 C         -2.3738076327       -1.1416429048        0.1264304002
 C         -3.3422214059       -0.1557560963        0.1280484323
 C         -2.9875933799        1.1777872794       -0.0013859249
 C         -1.6604888616        1.5404865843       -0.1346487442
 H          3.6895341095       -0.1257437368        1.5592375590
 H          3.2585424034        1.4601574943        1.3225745769
 H          4.7430732368        0.9165115065        0.8002313883
 H          3.7006309385       -0.5293934465       -0.8656788031
 H          3.2375209720        1.1369279118       -1.1131968079
 H          2.0917534551       -2.1777263433       -0.1462669830
 H         -0.2672025926       -2.8208376836        0.0918596855
 H          0.9930491099        1.9304177883       -0.3771695387
 H         -2.6561749098       -2.1767944957        0.2265741356
 H         -4.3822520474       -0.4259000766        0.2302678143
 H         -3.7536260297        1.9381336661        0.0010486634
 H         -1.3920888967        2.5789978529       -0.2368258469
  24
  -32.146610119999998        4.2333632911571405E-003 !md4
 N          3.5912027298        1.3912715866        0.1678025980
 C          3.1978025273       -0.0272046476       -0.0768088172
 C          1.7229133567       -0.2879791913       -0.0155051535
 C          1.2614628743       -1.5975596807        0.1161506423
 C         -0.0901271648       -1.8848774517        0.1553806736
 C          0.7929116427        0.7387275564       -0.1179527272
 C         -0.5902351732        0.4873287414       -0.0835112388
 C         -1.0448081485       -0.8591621739        0.0579353108
 C         -2.4280292161       -1.1106324809        0.0925028324
 C         -3.3345058399       -0.0724617459       -0.0093850419
 C         -2.8937158418        1.2342803329       -0.1476476705
 C         -1.5413870947        1.5180880125       -0.1847119600
 H          3.2220259920        1.7274408802        1.0694536356
 H          3.2431651580        2.0152135666       -0.5750763678
 H          4.6166988506        1.4986822920        0.1961241414
 H          3.7000594513       -0.6652244445        0.6602239660
 H          3.5762955501       -0.3441661827       -1.0558672682
 H          1.9784007737       -2.3995254683        0.1855051424
 H         -0.4229875635       -2.9046131445        0.2593648244
 H          1.1292279820        1.7536500683       -0.2240746266
 H         -2.7769450836       -2.1246498388        0.1990835661
 H         -4.3932613340       -0.2807519003        0.0180527938
 H         -3.6120439976        2.0359163463       -0.2270908042
 H         -1.2060246481        2.5363113791       -0.2927550251
  24
  -32.146580960000001        4.1047293947745487E-003 !md4
 N          3.5984026223        1.3569011937       -0.2673004435
 C          3.1935329895       -0.0059707375        0.1855473070
 C          1.7206858637       -0.2771691105        0.1206189099
 C          1.2595904743       -1.5909259892        0.2024452239
 C         -0.0908376366       -1.8841677377        0.1683050587
 C          0.7910274735        0.7492294450        0.0114243890
 C         -0.5910576734        0.4921717039       -0.0251628734
 C         -1.0448808829       -0.8596117888        0.0544774269
 C         -2.4270075003       -1.1169298787        0.0190686115
 C         -3.3331046726       -0.0792602040       -0.0908752620
 C         -2.8930770423        1.2328121507       -0.1678435754
 C         -1.5418019721        1.5222704976       -0.1358989717
 H          3.2258975954        2.0893111814        0.3546153833
 H          3.2619837690        1.5446530909       -1.2233682213
 H          4.6244826218        1.4619210453       -0.2762530974
 H          3.5403370917       -0.1632489249        1.2137767671
 H          3.7168761370       -0.7514728287       -0.4251435601
 H          1.9757994401       -2.3909430668        0.2971996157
 H         -0.4232627941       -2.9073523130        0.2320438427
 H          1.1268597730        1.7680141415       -0.0492581971
 H         -2.7753092933       -2.1349594539        0.0791713701
 H         -4.3910738717       -0.2918268037       -0.1163971596
 H         -3.6112347030        2.0340336863       -0.2529541866
 H         -1.2070168675        2.5446333229       -0.1956123143
  24
  -32.146571360000003        4.0632418872033962E-003 !gc
 N          3.5970443152        1.3591290888       -0.2635343221
 C          3.1940103595       -0.0072843729        0.1803125250
 C          1.7208185024       -0.2777991316        0.1197371057
 C          1.2594869833       -1.5913998607        0.2025873304
 C         -0.0910480685       -1.8843512193        0.1697482730
 C          0.7913140858        0.7488317440        0.0115967519
 C         -0.5908414707        0.4920626481       -0.0239808730
 C         -1.0449152661       -0.8596421809        0.0557746782
 C         -2.4270232540       -1.1168495387        0.0189400222
 C         -3.3329083254       -0.0791125550       -0.0921891236
 C         -2.8926700723        1.2329181707       -0.1686918505
 C         -1.5414064629        1.5222552909       -0.1354931943
 H          4.6229498115        1.4642221199       -0.2758666931
 H          3.2269308541        2.0866742183        0.3657197390
 H          3.2568506959        1.5543239167       -1.2167590451
 H          3.5452988277       -0.1727175127        1.2057295334
 H          3.7144692415       -0.7479496545       -0.4386364285
 H          1.9756616043       -2.3915333648        0.2966108014
 H         -0.4236574472       -2.9074623315        0.2337088837
 H          1.1273855854        1.7674942119       -0.0497266610
 H         -2.7755346888       -2.1348433818        0.0786385171
 H         -4.3908557209       -0.2915642940       -0.1193184875
 H         -3.6106626375        2.0341874185       -0.2547135172
 H         -1.2064467336        2.5445687324       -0.1950416745
  24
  -32.146566909999997        4.0441531943234948E-003 !mtd1
 N          3.5900553156        1.3953727362        0.1470982986
 C          3.1983585106       -0.0289152381       -0.0639639154
 C          1.7230860311       -0.2890956893       -0.0087500540
 C          1.2608474272       -1.5986156539        0.1206127027
 C         -0.0908946400       -1.8855311851        0.1564789572
 C          0.7935047011        0.7379684548       -0.1123106386
 C         -0.5898478199        0.4870593644       -0.0814792366
 C         -1.0449801685       -0.8594226007        0.0580834694
 C         -2.4283070820       -1.1106197763        0.0901590537
 C         -3.3343612981       -0.0721761927       -0.0125152061
 C         -2.8930640131        1.2345856291       -0.1492815146
 C         -1.5405838990        1.5180207091       -0.1842294550
 H          4.6152608436        1.5043395287        0.1747923350
 H          3.2189117227        1.7531890055        1.0396345405
 H          3.2429689558        2.0005894903       -0.6115007845
 H          3.6944332157       -0.6479642293        0.6931703937
 H          3.5848911169       -0.3705484742       -1.0314852683
 H          1.9773815168       -2.4008565283        0.1908764749
 H         -0.4242461334       -2.9052691232        0.2590373739
 H          1.1302715406        1.7529137214       -0.2162665031
 H         -2.7776459938       -2.1245841546        0.1958225549
 H         -4.3932711607       -0.2799590084        0.0136894241
 H         -3.6111862825        2.0363352374       -0.2294489777
 H         -1.2047999199        2.5361383810       -0.2917480339
  24
  -32.146566139999997        4.0408593198704486E-003 !mtd9
 N          3.5965991616        1.3596186485       -0.2628910184
 C          3.1941079838       -0.0074419704        0.1795292611
 C          1.7208596306       -0.2779196609        0.1200100893
 C          1.2594820229       -1.5914828237        0.2032578389
 C         -0.0910501940       -1.8844682863        0.1698258156
 C          0.7913955598        0.7486613650        0.0113249772
 C         -0.5907527404        0.4918816651       -0.0247264368
 C         -1.0448618583       -0.8597999708        0.0550050844
 C         -2.4270338542       -1.1168122958        0.0187546071
 C         -3.3328718808       -0.0789199918       -0.0917831091
 C         -2.8925892468        1.2330337910       -0.1682871838
 C         -1.5412745423        1.5221992632       -0.1355922496
 H          3.2545750122        1.5564255053       -1.2149906857
 H          4.6226371127        1.4646342204       -0.2771141214
 H          3.2278546701        2.0861068307        0.3683696355
 H          3.5465090762       -0.1743065557        1.2043212730
 H          3.7139450985       -0.7472051520       -0.4410163116
 H          1.9756610722       -2.3915347440        0.2978762226
 H         -0.4237394621       -2.9075089949        0.2344827689
 H          1.1275144918        1.7673194556       -0.0498937030
 H         -2.7756686796       -2.1347249568        0.0787687535
 H         -4.3908790385       -0.2911159043       -0.1185614686
 H         -3.6106467751        2.0343290282       -0.2539560133
 H         -1.2062639779        2.5444948700       -0.1946909632
  24
  -32.146514160000002        3.8245943311495355E-003 !mtd9
 N          3.5881651262        1.4008084806        0.1114869689
 C          3.1990207650       -0.0312818054       -0.0436290633
 C          1.7232224017       -0.2904218360        0.0024803511
 C          1.2601070509       -1.5998894040        0.1289046506
 C         -0.0918625669       -1.8864103556        0.1592347031
 C          0.7943184092        0.7371511537       -0.1020281289
 C         -0.5892064612        0.4866134642       -0.0768970701
 C         -1.0453473495       -0.8599355846        0.0587410989
 C         -2.4288626743       -1.1107560386        0.0850104458
 C         -3.3341964500       -0.0718579380       -0.0195885552
 C         -2.8918982278        1.2349827206       -0.1523411835
 C         -1.5392053458        1.5180416901       -0.1814738403
 H          3.2425478441        1.9737431038       -0.6722990658
 H          4.6132918173        1.5120963907        0.1378666136
 H          3.2144187142        1.7941702519        0.9878825960
 H          3.6850015727       -0.6177143619        0.7453330834
 H          3.5983004974       -0.4130968000       -0.9907884430
 H          1.9763224630       -2.4021719776        0.2020515113
 H         -0.4257952837       -2.9062018478        0.2592008738
 H          1.1316394810        1.7522453128       -0.2025811639
 H         -2.7789375968       -2.1247965790        0.1875163427
 H         -4.3932478397       -0.2793736086        0.0021292450
 H         -3.6093841359        2.0372230414       -0.2334139370
 H         -1.2027080573        2.5363380921       -0.2849553728
  24
  -32.146409429999999        3.4233775747702019E-003 !gc
 N          3.5860486550        1.4002137647       -0.0998517643
 C          3.1991357835       -0.0291699751        0.0824235198
 C          1.7227603966       -0.2893435242        0.0686362470
 C          1.2580404362       -1.6000471496        0.1739692893
 C         -0.0939578224       -1.8880766139        0.1692101792
 C          0.7952469282        0.7389528677       -0.0414135389
 C         -0.5882108587        0.4873505609       -0.0493662474
 C         -1.0458884475       -0.8611830585        0.0583873953
 C         -2.4294111197       -1.1132174198        0.0502938496
 C         -3.3331396196       -0.0734763116       -0.0597901632
 C         -2.8892856226        1.2354325616       -0.1640227557
 C         -1.5365453319        1.5196675431       -0.1595735168
 H          3.2110276136        1.9899358487        0.6576295580
 H          3.2408598587        1.7692390512       -0.9982960637
 H          4.6109569703        1.5162926967       -0.0960692866
 H          3.6145505499       -0.3945602924        1.0291765740
 H          3.6712391584       -0.6294734774       -0.7045014543
 H          1.9733019986       -2.4018167174        0.2609835981
 H         -0.4291280121       -2.9090486565        0.2513718093
 H          1.1337325998        1.7552161236       -0.1239667930
 H         -2.7806946235       -2.1287977608        0.1311144422
 H         -4.3922198062       -0.2819223162       -0.0645889965
 H         -3.6056241383        2.0382862875       -0.2490758403
 H         -1.1987815642        2.5395883050       -0.2404921894
  24
  -32.146399660000000        3.3881670945076808E-003 !md5
 N          3.5857132026        1.4037176299       -0.0706393770
 C          3.1994428975       -0.0308941422        0.0661269874
 C          1.7229292637       -0.2904780046        0.0591509680
 C          1.2580262574       -1.6008351739        0.1677940649
 C         -0.0940901984       -1.8883168004        0.1680096785
 C          0.7954983911        0.7379016830       -0.0506767361
 C         -0.5881131012        0.4868196823       -0.0540028278
 C         -1.0459862074       -0.8612733074        0.0583917568
 C         -2.4296471479       -1.1126827409        0.0559287325
 C         -3.3332930371       -0.0728000551       -0.0533787382
 C         -2.8892474114        1.2356335993       -0.1626677534
 C         -1.5363667623        1.5192828839       -0.1637303816
 H          4.6104345095        1.5200950008       -0.0623763242
 H          3.2093451353        1.9687026313        0.7050356307
 H          3.2414326299        1.8011025674       -0.9572304259
 H          3.6241169816       -0.4281243701        0.9958143838
 H          3.6632520526       -0.6043978206       -0.7453375536
 H          1.9732521936       -2.4027800175        0.2534630416
 H         -0.4293845839       -2.9089966604        0.2532327481
 H          1.1341320029        1.7539287987       -0.1356059341
 H         -2.7811073450       -2.1278854555        0.1406420781
 H         -4.3924807699       -0.2807616138       -0.0535853958
 H         -3.6055405555        2.0385678068       -0.2473210530
 H         -1.1984346165        2.5388007957       -0.2488493163
  24
  -32.146286830000001        3.0068498555661251E-003 !mtd5
 N          4.1214619578       -0.2601362714       -0.1975622734
 C          3.0616753980        0.7058099812        0.2156688373
 C          1.6579794117        0.1919244837        0.0980868161
 C          1.3799127887       -1.1661878056       -0.0428384660
 C          0.0807124568       -1.6313268169       -0.1294866218
 C          0.5951746610        1.0866856419        0.1603654954
 C         -0.7400427277        0.6532001691        0.0762928492
 C         -1.0050858716       -0.7421758259       -0.0733502364
 C         -2.3399766870       -1.1769090635       -0.1563282767
 C         -3.3806438569       -0.2697684011       -0.0934761691
 C         -3.1243753009        1.0844457130        0.0524931364
 C         -1.8244962344        1.5467993321        0.1369340030
 H          3.9658767686       -0.5913759028       -1.1609798060
 H          4.1483770644       -1.0816847064        0.4242154164
 H          5.0579234231        0.1712576298       -0.1682423466
 H          3.1560663363        1.6141380817       -0.3913640619
 H          3.2412858263        1.0172303931        1.2515116610
 H          2.1936603782       -1.8689332828       -0.0859073688
 H         -0.1096812333       -2.6862780445       -0.2397272132
 H          0.7967484340        2.1373762694        0.2791982276
 H         -2.5456650715       -2.2286868742       -0.2692421828
 H         -4.4002745306       -0.6180348360       -0.1579563654
 H         -3.9460811333        1.7826373179        0.1009373061
 H         -1.6327067762        2.6009642780        0.2510433012
  24
  -32.146179490000002        2.6839949479878548E-003 !gc
 N          4.1215129697       -0.3052636655        0.1745811750
 C          3.0626854235        0.7314938207       -0.0004398869
 C          1.6586591687        0.2054018088       -0.0174821131
 C          1.3813960513       -1.1557143287       -0.1282702927
 C          0.0819330515       -1.6272916804       -0.1569237094
 C          0.5949513617        1.0980111906        0.0571125320
 C         -0.7405672789        0.6581496800        0.0313183998
 C         -1.0048820312       -0.7411414531       -0.0774516705
 C         -2.3400656255       -1.1820990470       -0.1027108299
 C         -3.3816046455       -0.2771673337       -0.0244417155
 C         -3.1259868527        1.0810219758        0.0798804031
 C         -1.8258549274        1.5495012676        0.1078068778
 H          5.0587594217        0.1199662415        0.2399414376
 H          4.1422642806       -0.9617454022       -0.6197292844
 H          3.9705262075       -0.8485422566        1.0374087266
 H          3.2476502505        1.2813802863       -0.9308580470
 H          3.1526274812        1.4683346394        0.8067133811
 H          2.1959229215       -1.8559366151       -0.1918388167
 H         -0.1078452736       -2.6847183898       -0.2416143887
 H          0.7964267093        2.1525666543        0.1347574599
 H         -2.5453139771       -2.2368518793       -0.1841924591
 H         -4.4014068192       -0.6302776523       -0.0449831772
 H         -3.9483632266        1.7775330698        0.1395649398
 H         -1.6343974557        2.6068059875        0.1886585265
  24
  -32.146172090000000        2.6630596203848856E-003 !mtd3
 N          4.1249270629       -0.2758374370       -0.1510828196
 C          3.0610684494        0.7142711984        0.1876542114
 C          1.6576986958        0.1963277270        0.0837728891
 C          1.3805627432       -1.1622405697       -0.0548278143
 C          0.0815640794       -1.6292599064       -0.1341308428
 C          0.5941188275        1.0898102548        0.1495213606
 C         -0.7409722034        0.6545903264        0.0722584966
 C         -1.0050081728       -0.7413670942       -0.0740610328
 C         -2.3396658908       -1.1778159022       -0.1511117188
 C         -3.3811223838       -0.2717854493       -0.0859898535
 C         -3.1258503960        1.0829805012        0.0568071100
 C         -1.8261960632        1.5470221428        0.1356340228
 H          4.1314497557       -1.0650167669        0.5116173463
 H          5.0627550916        0.1524104102       -0.1200976129
 H          3.9918708402       -0.6540854159       -1.1006310127
 H          3.1648378674        1.5841763690       -0.4718776134
 H          3.2277463650        1.0874752058        1.2050972249
 H          2.1949464872       -1.8638373874       -0.1027101166
 H         -0.1080165966       -2.6846007749       -0.2423864668
 H          0.7953175776        2.1409781462        0.2647055466
 H         -2.5443834394       -2.2300365358       -0.2618770675
 H         -4.4005378677       -0.6213552984       -0.1468085369
 H         -3.9481751301        1.7803029722        0.1067045621
 H         -1.6351849862        2.6016331444        0.2469521049
  24
  -32.146076330000000        2.4064267165184927E-003 !mtd1
 N          4.1259811531       -0.3096045058        0.1124756300
 C          3.0616315558        0.7333377612        0.0350813819
 C          1.6581143816        0.2063528291        0.0020535614
 C          1.3817323107       -1.1544453150       -0.1147237118
 C          0.0825669927       -1.6260735229       -0.1539043500
 C          0.5937461551        1.0982742301        0.0754183923
 C         -0.7415242465        0.6583302679        0.0394695243
 C         -1.0049044459       -0.7404385569       -0.0780793991
 C         -2.3398063563       -1.1815414965       -0.1138990014
 C         -3.3820039622       -0.2772876106       -0.0366243056
 C         -3.1273227853        1.0802930603        0.0774569341
 C         -1.8274790229        1.5488956951        0.1155080569
 H          4.0061248450       -0.9031346979        0.9464594481
 H          5.0649750804        0.1132530250        0.1704872741
 H          4.1186862764       -0.9175375530       -0.7198278293
 H          3.2292667908        1.3512150444       -0.8551053025
 H          3.1640754117        1.4087333895        0.8928802044
 H          2.1966944256       -1.8544036496       -0.1749079547
 H         -0.1064659462       -2.6832082649       -0.2438372833
 H          0.7947543875        2.1522975587        0.1611793988
 H         -2.5443486281       -2.2358430518       -0.2027573611
 H         -4.4016230786       -0.6303612979       -0.0654088790
 H         -3.9501526584        1.7762523495        0.1373036926
 H         -1.6367645580        2.6056587257        0.2047274375
