  24
  -32.257194249999998       0.15030350747921509      !mtd12
 N         -3.8046428508       -0.5226478783        0.8186124815
 C         -3.1181456303       -0.3439803580       -0.4962545878
 C         -1.6819297702        0.0445720025       -0.3415255335
 C         -1.3268945279        1.3854622406       -0.2014942738
 C         -0.0111826010        1.7620876056       -0.0298766835
 C         -0.6921063720       -0.9243092964       -0.2951433118
 C          0.6605743329       -0.5801675866       -0.1232846160
 C          1.0108609123        0.7982096268        0.0123021237
 C          2.3637067442        1.1426573470        0.1839540756
 C          3.3373304420        0.1665060516        0.2203477525
 C          2.9976427006       -1.1722340267        0.0886677809
 C          1.6810865703       -1.5471895895       -0.0806534167
 H         -4.7883419134       -0.7871416217        0.6983787833
 H         -3.7696430996        0.3459979745        1.3619599320
 H         -3.3400551876       -1.2522858455        1.3687999434
 H         -3.6409572292        0.4169067229       -1.0857622384
 H         -3.1872421653       -1.2699667753       -1.0772633469
 H         -2.0979083936        2.1361234043       -0.2304077438
 H          0.2437753526        2.8026108916        0.0738193799
 H         -0.9602757547       -1.9606799276       -0.3937868332
 H          2.6332168879        2.1797134372        0.2869838450
 H          4.3701991168        0.4454674438        0.3521878069
 H          3.7689371619       -1.9246763912        0.1186811301
 H          1.4238632740       -2.5874159947       -0.1826278577
  24
  -32.257193860000001       0.15024149062312145      !mtd1
 N         -3.8005720748       -0.5347960607        0.8188538470
 C         -3.1188755374       -0.3394480599       -0.4961328597
 C         -1.6824132149        0.0482903041       -0.3417108807
 C         -1.3259130051        1.3889545256       -0.2029358767
 C         -0.0097397449        1.7642532701       -0.0318873521
 C         -0.6937289609       -0.9216379367       -0.2940695187
 C          0.6593279204       -0.5788683475       -0.1224967921
 C          1.0112236823        0.7992659071        0.0112844808
 C          2.3645012993        1.1423287616        0.1823143360
 C          3.3369415056        0.1650401373        0.2201063546
 C          2.9956391700       -1.1734899281        0.0904512628
 C          1.6786284385       -1.5470895071       -0.0783182796
 H         -3.3326832873       -1.2697933741        1.3589496204
 H         -4.7840915631       -0.7999727492        0.6987746813
 H         -3.7654598926        0.3275649220        1.3721327873
 H         -3.6445284500        0.4280818172       -1.0743633442
 H         -3.1891523424       -1.2582969753       -1.0882676844
 H         -2.0960900551        2.1404646162       -0.2322689017
 H          0.2464340900        2.8046058341        0.0705636766
 H         -0.9631470438       -1.9577811953       -0.3915595304
 H          2.6352865829        2.1792071311        0.2837642576
 H          4.3701540859        0.4429312736        0.3515112929
 H          3.7659860697       -1.9268464580        0.1217642310
 H          1.4200586859       -2.5871815356       -0.1782154225
  24
  -32.257189810000000       0.14959898008663197      !md3
 N         -3.7942318082       -0.5483009569        0.8209932092
 C         -3.1200276997       -0.3343745456       -0.4949741410
 C         -1.6830908393        0.0524704086       -0.3429142545
 C         -1.3249338154        1.3928704889       -0.2054716875
 C         -0.0082669838        1.7666850648       -0.0349568402
 C         -0.6955885010       -0.9185729221       -0.2947131188
 C          0.6578392664       -0.5773787001       -0.1230542778
 C          1.0114541278        0.8004389230        0.0094685209
 C          2.3650198305        1.1418586872        0.1814940610
 C          3.3360543125        0.1632700224        0.2216476492
 C          2.9930680723       -1.1749477904        0.0932249561
 C          1.6757553767       -1.5469433100       -0.0766795414
 H         -3.7537854227        0.3055355804        1.3869281918
 H         -3.3247865736       -1.2923465230        1.3472320635
 H         -4.7790433884       -0.8096161833        0.7028652476
 H         -3.6496490616        0.4404222839       -1.0597305253
 H         -3.1925331734       -1.2451271996       -1.0992300197
 H         -2.0941755533        2.1453318485       -0.2349836442
 H          0.2492095085        2.8068075477        0.0665603770
 H         -0.9663531617       -1.9544281577       -0.3915166901
 H          2.6371160693        2.1784716811        0.2821650385
 H          4.3694737933        0.4398787529        0.3541211327
 H          3.7623290194       -1.9293297644        0.1264857879
 H          1.4158647663       -2.5867885227       -0.1757330352
  24
  -32.257187240000000       0.14919268928999671      !gc
 N         -3.7784398183       -0.5318584845       -0.9176061550
 C         -3.1305442815       -0.3407255298        0.4149216250
 C         -1.6906041993        0.0471674693        0.2981695897
 C         -1.3307590704        1.3882226426        0.1724636541
 C         -0.0106739234        1.7640341034        0.0363874859
 C         -0.7010271846       -0.9226757356        0.2730007236
 C          0.6560012853       -0.5793725940        0.1376065215
 C          1.0111150815        0.7991609779        0.0169237352
 C          2.3683118486        1.1428066872       -0.1179954612
 C          3.3415345897        0.1656656575       -0.1334531215
 C          2.9971248050       -1.1732407036       -0.0164218725
 C          1.6762364407       -1.5474029660        0.1171714616
 H         -3.7237388743        0.3307920815       -1.4687064761
 H         -4.7663054625       -0.7916517747       -0.8239287693
 H         -3.3003800821       -1.2689951641       -1.4457841224
 H         -3.2160721266       -1.2612260513        1.0023845811
 H         -3.6704812914        0.4253854526        0.9817931539
 H         -2.1014787676        2.1396400699        0.1846101935
 H          0.2479861607        2.8046704031       -0.0566047407
 H         -0.9728497050       -1.9590402192        0.3610454097
 H          2.6413755000        2.1800506663       -0.2093379772
 H          4.3778075344        0.4439186665       -0.2372528675
 H          3.7681298306       -1.9264567579       -0.0300006365
 H          1.4153171693       -2.5877470734        0.2080542206
  24
  -32.257185960000001       0.14899074617011673      !gc
 N         -3.7754465545       -0.5425591615       -0.9167721372
 C         -3.1311030773       -0.3364801923        0.4152362376
 C         -1.6909874059        0.0505520087        0.2979329062
 C         -1.3300343881        1.3911753099        0.1705559285
 C         -0.0096001442        1.7656983355        0.0342315992
 C         -0.7022462819       -0.9201312603        0.2738812001
 C          0.6550681046       -0.5781604014        0.1381048897
 C          1.0113822947        0.7999369435        0.0160093349
 C          2.3689162480        1.1422506325       -0.1189370954
 C          3.3412737306        0.1642260243       -0.1332182181
 C          2.9956670503       -1.1742649946       -0.0149766332
 C          1.6744309867       -1.5471246657        0.1187668940
 H         -3.2953565990       -1.2847267309       -1.4359619813
 H         -3.7201780209        0.3142769872       -1.4768118718
 H         -4.7632928427       -0.8023751164       -0.8228268947
 H         -3.2177079289       -1.2504418289        1.0126700092
 H         -3.6728898703        0.4355917554        0.9721597900
 H         -2.1001069495        2.1432792835        0.1816028135
 H          0.2499701655        2.8060092676       -0.0598702015
 H         -0.9749938146       -1.9561381954        0.3632277749
 H          2.6429389997        2.1791635716       -0.2111838884
 H          4.3778179769        0.4414480366       -0.2370353440
 H          3.7660035828       -1.9281787434       -0.0277296319
 H          1.4125590732       -2.5871472280        0.2105899798
  24
  -32.257185589999999       0.14893242292978673      !md5
 N         -3.7764837024       -0.5361423529       -0.9187094562
 C         -3.1309473860       -0.3392107916        0.4142074646
 C         -1.6908647048        0.0486107709        0.2987175545
 C         -1.3305401678        1.3894815464        0.1722788590
 C         -0.0102931323        1.7647460290        0.0361140940
 C         -0.7014828158       -0.9214722809        0.2748692706
 C          0.6556203223       -0.5787775176        0.1388283714
 C          1.0111816720        0.7995238606        0.0170322206
 C          2.3684389628        1.1424945346       -0.1190313085
 C          3.3412438341        0.1649610776       -0.1344597952
 C          2.9963985604       -1.1737234404       -0.0162887241
 C          1.6754450277       -1.5472425536        0.1184170643
 H         -4.7635164990       -0.7989418889       -0.8252066631
 H         -3.2954806240       -1.2732907636       -1.4441962037
 H         -3.7242291071        0.3249027452       -1.4726657626
 H         -3.2171004332       -1.2573998211        1.0052135666
 H         -3.6724035505        0.4288234330        0.9770300396
 H         -2.1010570844        2.1411320622        0.1830011267
 H          0.2487121664        2.8052319752       -0.0574664521
 H         -0.9735389377       -1.9576945228        0.3637642530
 H          2.6419654298        2.1795024067       -0.2113487955
 H          4.3775086342        0.4427727446       -0.2393483279
 H          3.7670867786       -1.9272589847       -0.0297086918
 H          1.4141526414       -2.5874430706        0.2097664710
  24
  -32.255680820000002        3.0300154577373797E-002 !mtd5
 N         -3.5891903400       -1.3983620953        0.0876820299
 C         -3.1964553375        0.0358410668       -0.0766959930
 C         -1.7192499538        0.2926615150       -0.0643227594
 C         -1.2525180002        1.6039538914       -0.1656945002
 C          0.0970150262        1.8896425111       -0.1616906278
 C         -0.7967531291       -0.7356152405        0.0404396314
 C          0.5871273798       -0.4875838334        0.0477991964
 C          1.0476361692        0.8601743112       -0.0555532894
 C          2.4320737685        1.1082747590       -0.0473384545
 C          3.3305214584        0.0670696415        0.0583605181
 C          2.8829193658       -1.2425096506        0.1582381383
 C          1.5324340509       -1.5232934570        0.1536386412
 H         -3.2140971510       -1.9701098758       -0.6773695830
 H         -4.6095995047       -1.5045063326        0.0827871213
 H         -3.2418093572       -1.7718369177        0.9780406264
 H         -3.6627004909        0.6262193542        0.7197909625
 H         -3.6118450265        0.4142824312       -1.0172063275
 H         -1.9664553176        2.4056201986       -0.2488669475
 H          0.4336053625        2.9089869120       -0.2402153555
 H         -1.1361774448       -1.7503540894        0.1191333619
 H          2.7853011267        2.1222182235       -0.1245739663
 H          4.3888943299        0.2719094501        0.0634495938
 H          3.5965413145       -2.0462999043        0.2399290761
 H          1.1911256674       -2.5412347016        0.2310455938
  24
  -32.255672740000001        3.0042186175960432E-002 !md1
 N         -3.5887189382       -1.4038722464       -0.0350167793
 C         -3.1970751292        0.0397735994       -0.0044351621
 C         -1.7196658538        0.2945503922       -0.0259407919
 C         -1.2532754736        1.6047966310       -0.1417791491
 C          0.0964115927        1.8892638770       -0.1578206404
 C         -0.7968492255       -0.7334506809        0.0787027816
 C          0.5872154731       -0.4865853942        0.0657226841
 C          1.0474414846        0.8597586662       -0.0558466577
 C          2.4320611644        1.1066490622       -0.0684727204
 C          3.3310235746        0.0656002615        0.0342948400
 C          2.8837321671       -1.2426111457        0.1518928746
 C          1.5330737884       -1.5221517009        0.1680800757
 H         -4.6089416978       -1.5092165734       -0.0608562226
 H         -3.2480032642       -1.8942175704        0.7994612025
 H         -3.2058357945       -1.8667724992       -0.8669064365
 H         -3.6233919066        0.5083158374        0.8893989149
 H         -3.6532637144        0.5492270146       -0.8603940201
 H         -1.9675084111        2.4068455784       -0.2187460868
 H          0.4328446854        2.9076690579       -0.2483099391
 H         -1.1360862561       -1.7472066979        0.1700923921
 H          2.7849691047        2.1195701186       -0.1594068156
 H          4.3895270027        0.2695446994        0.0234036823
 H          3.5976973099       -2.0463538496        0.2310050895
 H          1.1920575994       -2.5390927321        0.2587972134
  24
  -32.255670950000003        2.9985335065068262E-002 !md4
 N         -3.5887417955       -1.4039014376       -0.0389110405
 C         -3.1970639399        0.0396975358       -0.0032196710
 C         -1.7196884183        0.2945871691       -0.0245711857
 C         -1.2533283019        1.6048474813       -0.1404569953
 C          0.0963633970        1.8892640156       -0.1571859470
 C         -0.7968270606       -0.7333600766        0.0801143526
 C          0.5872395716       -0.4865232524        0.0666904952
 C          1.0474461487        0.8597633009       -0.0557187297
 C          2.4320724106        1.1065569014       -0.0696976600
 C          3.3310366420        0.0654934406        0.0328828003
 C          2.8837690523       -1.2426221688        0.1516547559
 C          1.5331127270       -1.5220706625        0.1690994299
 H         -3.2482081950       -1.8970094169        0.7939814400
 H         -3.2058414714       -1.8640787883       -0.8723090538
 H         -4.6090114295       -1.5090329285       -0.0652067284
 H         -3.6229558265        0.5051227036        0.8924419486
 H         -3.6536126471        0.5522472200       -0.8571265131
 H         -1.9675543340        2.4069175862       -0.2172271708
 H          0.4327666000        2.9076563896       -0.2479187691
 H         -1.1360465139       -1.7470777865        0.1719882777
 H          2.7849853579        2.1193728731       -0.1617936179
 H          4.3895475344        0.2693493113        0.0210666061
 H          3.5977632972       -2.0463266944        0.2308885615
 H          1.1920891596       -2.5389004836        0.2609818822
  24
  -32.254837449999997        1.2412487602728877E-002 !mtd9
 N         -4.1305136617        0.3161831630       -0.0433023569
 C         -3.0590977772       -0.7275084918       -0.0769705000
 C         -1.6551132763       -0.2025362166       -0.0223841568
 C         -1.3764683059        1.1573220080        0.1081153703
 C         -0.0798781344        1.6257318762        0.1602246222
 C         -0.5958420002       -1.0947198962       -0.1000226278
 C          0.7403155078       -0.6586509403       -0.0517519708
 C          1.0064461659        0.7380987706        0.0821850643
 C          2.3423491268        1.1755543966        0.1300036840
 C          3.3801318221        0.2707933465        0.0485495462
 C          3.1222608714       -1.0862521055       -0.0818196314
 C          1.8245447479       -1.5511335406       -0.1319222040
 H         -4.0880128958        0.8567401964        0.8278161798
 H         -5.0625766152       -0.1088223628       -0.0993705683
 H         -4.0343966888        0.9616420477       -0.8350344663
 H         -3.1744423483       -1.3252344666       -0.9878837409
 H         -3.2087096089       -1.4192934304        0.7593091751
 H         -2.1893490322        1.8572220923        0.1691727589
 H          0.1101109839        2.6803531808        0.2613062213
 H         -0.7990874522       -2.1459293830       -0.1997643627
 H          2.5483920071        2.2273102291        0.2309667585
 H          4.3993390986        0.6199203834        0.0869454116
 H          3.9429275567       -1.7824204858       -0.1440326506
 H          1.6311444091       -2.6052233753       -0.2328095363
