  24
        -32.25719425
 N         -3.8046428508       -0.5226478783        0.8186124815
 C         -3.1181456303       -0.3439803580       -0.4962545878
 C         -1.6819297702        0.0445720025       -0.3415255335
 C         -1.3268945279        1.3854622406       -0.2014942738
 C         -0.0111826010        1.7620876056       -0.0298766835
 C         -0.6921063720       -0.9243092964       -0.2951433118
 C          0.6605743329       -0.5801675866       -0.1232846160
 C          1.0108609123        0.7982096268        0.0123021237
 C          2.3637067442        1.1426573470        0.1839540756
 C          3.3373304420        0.1665060516        0.2203477525
 C          2.9976427006       -1.1722340267        0.0886677809
 C          1.6810865703       -1.5471895895       -0.0806534167
 H         -4.7883419134       -0.7871416217        0.6983787833
 H         -3.7696430996        0.3459979745        1.3619599320
 H         -3.3400551876       -1.2522858455        1.3687999434
 H         -3.6409572292        0.4169067229       -1.0857622384
 H         -3.1872421653       -1.2699667753       -1.0772633469
 H         -2.0979083936        2.1361234043       -0.2304077438
 H          0.2437753526        2.8026108916        0.0738193799
 H         -0.9602757547       -1.9606799276       -0.3937868332
 H          2.6332168879        2.1797134372        0.2869838450
 H          4.3701991168        0.4454674438        0.3521878069
 H          3.7689371619       -1.9246763912        0.1186811301
 H          1.4238632740       -2.5874159947       -0.1826278577
