  22
        -30.74010171
 N         -1.2380558399       -1.5111167180       -1.2629973839
 C         -0.6676437989       -2.3080323265       -0.1393700911
 C         -0.1438559390       -1.4190364856        0.9871242335
 C          0.8803463786       -0.4272662391        0.5192105461
 C          2.2169580436       -0.7836401499        0.4148691411
 C          3.1523996583        0.1209503275       -0.0471574671
 C          2.7609889703        1.3921830945       -0.4166303489
 C          1.4325534538        1.7559438591       -0.3265313180
 C          0.4990701955        0.8502515159        0.1356259633
 Cl        -3.0758280520        1.1222285478        0.1818355084
 H         -1.9235454998       -0.8243708720       -0.9049602777
 H         -1.7061567827       -2.0996710119       -1.9669035097
 H         -0.5000562477       -0.9738344718       -1.7387464716
 H          0.1422606351       -2.9419175586       -0.5189216133
 H         -1.4273833323       -2.9988751218        0.2465971321
 H          0.2835178759       -2.0279274499        1.7922795446
 H         -0.9788265028       -0.8770381163        1.4444675854
 H          2.5187126324       -1.7784786054        0.6970497030
 H          4.1889570187       -0.1666384053       -0.1210388419
 H          3.4911171875        2.0985945195       -0.7779702728
 H          1.1230004522        2.7461197236       -0.6203352095
 H         -0.5413264492        1.1250690065        0.1921896636
  22
        -30.74001864
 N         -1.3107515088       -1.3805342976        1.3372870201
 C         -0.6801305654       -2.2824972327        0.3314204171
 C         -0.0927543149       -1.5068874406       -0.8463323050
 C          0.9070138649       -0.4715647765       -0.4219939309
 C          2.2315680244       -0.8159722316       -0.1955262616
 C          3.1427010293        0.1315868998        0.2272514912
 C          2.7383283341        1.4351212277        0.4346387169
 C          1.4211180353        1.7884794189        0.2218002435
 C          0.5118714980        0.8397050084       -0.2006101761
 Cl        -3.0592731874        1.0835361720       -0.4733682537
 H         -1.8186468103       -1.8998318833        2.0716824401
 H         -1.9733578920       -0.7382715453        0.8766336185
 H         -0.5998057298       -0.7948515050        1.7968398965
 H         -1.4184306841       -3.0108462786       -0.0261171816
 H          0.1061654937       -2.8728690749        0.8162076234
 H         -0.8998733432       -1.0144870748       -1.3996211401
 H          0.3765804068       -2.1904855146       -1.5633809203
 H          2.5429222545       -1.8353849771       -0.3511174951
 H          4.1701950833       -0.1475508981        0.3974113760
 H          3.4494745443        2.1751660659        0.7652090367
 H          1.1011587984        2.8044643710        0.3891066469
 H         -0.5209066514        1.1076188962       -0.3513724796
  22
        -30.73937882
 N         -1.8538600981       -2.1385057300       -0.6064676473
 C         -0.5522806612       -1.4401052054       -0.8119151395
 C         -0.0820330749       -0.7131927379        0.4434510386
 C          1.2089344032        0.0263073155        0.2407511939
 C          2.4265852012       -0.6079450346        0.4415908536
 C          3.6142835561        0.0623367149        0.2250026843
 C          3.5989911728        1.3750874999       -0.2015226357
 C          2.3943653389        2.0147108016       -0.4139135527
 C          1.2075103883        1.3429587345       -0.1970292224
 Cl        -4.1293771350        0.3328256175        0.4091840516
 H         -2.5823508647       -1.4621962272       -0.3198287320
 H         -1.7795316949       -2.8432004621        0.1394039990
 H         -2.1802403514       -2.6119760308       -1.4604591454
 H         -0.6414348309       -0.7243019390       -1.6375252690
 H          0.2119479475       -2.1579953969       -1.1318219848
 H          0.0307969166       -1.4273266379        1.2660639625
 H         -0.8551398775       -0.0122303190        0.7761165313
 H          2.4362914986       -1.6346330127        0.7674752181
 H          4.5540601242       -0.4407457246        0.3873080179
 H          4.5261219294        1.8989096507       -0.3710379107
 H          2.3798914633        3.0387626899       -0.7511212697
 H          0.2663046676        1.8377755476       -0.3693705153
  22
        -30.73898964
 N         -1.2601685236       -0.6708918923        0.7015104485
 C         -0.8589057475       -1.2791928272       -0.5982562317
 C          0.5973144664       -1.7391371871       -0.5948457928
 C          1.5602582347       -0.6063220683       -0.3886721033
 C          2.1074434382       -0.3560639761        0.8618367429
 C          2.9627009862        0.7104003005        1.0563126957
 C          3.2790350049        1.5435744183        0.0022779876
 C          2.7375220718        1.3089560414       -1.2454674315
 C          1.8819957124        0.2423006870       -1.4379926344
 Cl        -4.5802221726        0.4572609681        0.5484526860
 H         -2.2420051710       -0.3395247754        0.6875948374
 H         -0.6606878041        0.1351626152        0.9266647626
 H         -1.1665256386       -1.3488439881        1.4708396465
 H         -1.0101188487       -0.5500469636       -1.4027772156
 H         -1.5254391301       -2.1186085452       -0.8316216973
 H          0.8420862686       -2.2502524888       -1.5332810917
 H          0.7449524030       -2.4861845724        0.1922325488
 H          1.8556866199       -1.0031193525        1.6853374673
 H          3.3818744541        0.8936383857        2.0327067324
 H          3.9462882845        2.3769507268        0.1536916854
 H          2.9809063746        1.9598507393       -2.0699090448
 H          1.4531490061        0.0613225333       -2.4094698900
  22
        -30.73889909
 N         -1.4149993612       -0.3458122582       -0.5820968685
 C         -0.7724611160       -1.4380975071        0.2017770686
 C          0.6126179113       -1.7941475941       -0.3339758521
 C          1.5731691117       -0.6428074070       -0.2645847269
 C          2.1660639613       -0.2937836826        0.9402004370
 C          3.0228345522        0.7862849173        1.0177423664
 C          3.2942630989        1.5349906086       -0.1096602506
 C          2.7065178160        1.2022393783       -1.3133922385
 C          1.8501306526        0.1216591925       -1.3891063925
 Cl        -4.5770023475        0.4346782007        0.7345476171
 H         -1.5312463381       -0.6195175446       -1.5708294846
 H         -0.8350510033        0.5045748635       -0.5643031124
 H         -2.3473210674       -0.0993044112       -0.2104674656
 H         -1.4221483298       -2.3219612791        0.2004649955
 H         -0.6918596629       -1.1329173559        1.2516254415
 H          0.5288894903       -2.1318866739       -1.3723785880
 H          1.0323310144       -2.6438248734        0.2171672953
 H          1.9481401965       -0.8757345288        1.8201141583
 H          3.4785768003        1.0457608016        1.9598571834
 H          3.9627810956        2.3788867395       -0.0497660882
 H          2.9147882020        1.7872149707       -2.1948963299
 H          1.3868833934       -0.1350175465       -2.3270527357
  22
        -30.73803456
 N         -2.0021119132       -1.3911655204        0.4663289744
 C         -0.8184738548       -0.5371732824        0.1595047671
 C          0.4291371995       -0.9771309683        0.9178721083
 C          1.6256367196       -0.1203908063        0.6189268039
 C          2.4614351772       -0.4207902884       -0.4471892553
 C          3.5436014901        0.3843380860       -0.7428373964
 C          3.8002409223        1.5049117792        0.0212893373
 C          2.9711816516        1.8201388837        1.0789447953
 C          1.8893203144        1.0139801426        1.3732167279
 Cl        -4.8190152473       -0.2715747894       -1.3309874098
 H         -2.8435727939       -1.0841351548       -0.0538519870
 H         -2.2262501777       -1.3615273908        1.4701956677
 H         -1.8211260535       -2.3734610568        0.2187059317
 H         -1.0432412210        0.5092558856        0.3969483357
 H         -0.6180848642       -0.5521558722       -0.9182360085
 H          0.6592499493       -2.0210418808        0.6796716954
 H          0.2317155115       -0.9652232985        1.9950736068
 H          2.2550870418       -1.2914723165       -1.0469642131
 H          4.1871912972        0.1384901167       -1.5722783712
 H          4.6449051786        2.1342221963       -0.2092809291
 H          3.1671194197        2.6972751904        1.6746482983
 H          1.2368015134        1.2625703182        2.1934808096
  22
        -30.73739315
 N         -1.9327721542       -1.8133174289        0.2697108565
 C         -1.0580962156       -2.3683750853       -0.8020696066
 C          0.4253942057       -2.2767870448       -0.4500156237
 C          0.9032439536       -0.8655074429       -0.2675475193
 C          1.1536869722       -0.3563134674        0.9990015523
 C          1.5867258065        0.9445935810        1.1627496395
 C          1.7695073038        1.7558697550        0.0610671176
 C          1.5167412886        1.2641705705       -1.2036320084
 C          1.0854986461       -0.0376007164       -1.3655789861
 Cl        -1.7392950248        1.6940622894        0.5850176950
 H         -1.7635225431       -0.8006082687        0.3978606964
 H         -1.7467022179       -2.2737017308        1.1712995041
 H         -2.9326052985       -1.9340987293        0.0533861480
 H         -1.2481768503       -1.8336714239       -1.7399443047
 H         -1.3362308237       -3.4116068503       -0.9967013483
 H          1.0336162531       -2.7595754452       -1.2239649143
 H          0.6186546234       -2.8434285413        0.4670875731
 H          1.0072727549       -0.9882082225        1.8588687338
 H          1.7792130171        1.3276980365        2.1520741147
 H          2.1058618151        2.7723621606        0.1884102579
 H          1.6556347057        1.8967935635       -2.0656431099
 H          0.8878566700       -0.4231713976       -2.3517897052
  22
        -30.73729265
 N         -2.1352983724       -1.5778691927        0.1872116581
 C         -0.9828427455       -2.5185552726        0.2808791662
 C          0.1054652560       -2.0153195187        1.2271463786
 C          0.7088302868       -0.7110655395        0.7933026105
 C          1.5788302459       -0.6634241186       -0.2862114561
 C          2.1298348459        0.5346435226       -0.6957071023
 C          1.8156716662        1.7026497594       -0.0306433609
 C          0.9470828132        1.6703112665        1.0415924712
 C          0.3954193440        0.4715512979        1.4484075713
 Cl        -1.3891129188        1.4315038176       -1.4991059962
 H         -2.5287857814       -1.3829692281        1.1212946806
 H         -2.8920708657       -1.9520433104       -0.4029319832
 H         -1.8431271828       -0.6755496822       -0.2193436781
 H         -0.5594243389       -2.6755224707       -0.7179702393
 H         -1.3407189269       -3.5031079676        0.6067280967
 H          0.9038550932       -2.7604225362        1.3240856414
 H         -0.3101546623       -1.9019958382        2.2340878897
 H          1.8228662566       -1.5760058136       -0.8038597003
 H          2.8052039674        0.5576850331       -1.5358997631
 H          2.2450367706        2.6386860457       -0.3501606716
 H          0.6966098729        2.5819572547        1.5600102900
 H         -0.2856060457        0.4468479007        2.2825064992
  22
        -30.73715941
 N         -2.0734562647       -1.9830878328        0.5869559611
 C         -0.8142280064       -1.2842506113        0.9763254651
 C         -0.0722873077       -0.7212282395       -0.2333934499
 C          1.2309486789       -0.0251940651        0.0611549037
 C          2.0113637441        0.4144552461       -0.9997195518
 C          3.2092230818        1.0650530783       -0.7805339795
 C          3.6469805887        1.2890105760        0.5086205199
 C          2.8827897910        0.8613426085        1.5748768527
 C          1.6846771331        0.2110935384        1.3525891965
 Cl        -4.0022584845        0.3438428738       -1.2009762620
 H         -2.5904975515       -2.3403107837        1.4060923681
 H         -1.8761108701       -2.7782339449       -0.0354513680
 H         -2.6968359864       -1.3402506104        0.0744797088
 H         -0.1629743419       -1.9756135882        1.5235215397
 H         -1.0477571804       -0.4750567004        1.6778971756
 H         -0.7292219249       -0.0245083472       -0.7654045523
 H          0.1183240766       -1.5330619962       -0.9437216824
 H          1.6687538572        0.2420233197       -2.0065383043
 H          3.8021715922        1.3988755173       -1.6169493262
 H          4.5820137166        1.7971622879        0.6821912293
 H          3.2213809022        1.0358075704        2.5836770650
 H          1.0973628259       -0.1156170649        2.1932954968
  22
        -30.73162133
 N         -0.5700680792       -1.4713952795       -1.3025343640
 C         -1.0618860721       -0.4414954251       -0.3436973600
 C         -0.1058800147       -0.2389414908        0.8299377324
 C          1.2440504825        0.2564865109        0.3994374634
 C          2.3141929842       -0.6172878471        0.2685836337
 C          3.5456496142       -0.1642662447       -0.1613074860
 C          3.7219652388        1.1695516246       -0.4698325337
 C          2.6643824885        2.0482950967       -0.3491715419
 C          1.4333716643        1.5932940107        0.0802532583
 Cl        -4.7061386104       -0.5906919495        0.5283493480
 H         -0.4581926060       -2.3840511334       -0.8348044111
 H          0.3492943202       -1.2050954785       -1.6792823362
 H         -1.2122925853       -1.5991533190       -2.0968087793
 H         -2.0567311482       -0.7255876591        0.0202384326
 H         -1.2011419436        0.5098182419       -0.8704132516
 H          0.0126760530       -1.1818653354        1.3741502633
 H         -0.5304185394        0.4654034895        1.5549507380
 H          2.1747703721       -1.6589166799        0.5048339804
 H          4.3694509119       -0.8532874463       -0.2575721638
 H          4.6833272809        1.5239111113       -0.8057360467
 H          2.7988859545        3.0902443100       -0.5918415022
 H          0.6050815041        2.2762414992        0.1694409564
  22
        -30.73075266
 N         -1.0214910909       -3.7647698846       -0.1044626411
 C          0.0385668326       -3.6438505257       -1.1455235808
 C          1.2211737239       -2.8019379821       -0.6707876296
 C          0.8346627545       -1.3857205234       -0.3574787077
 C          0.6033972600       -0.9837647256        0.9504558712
 C          0.2119667332        0.3101451380        1.2312652315
 C          0.0429784291        1.2185607480        0.2064098630
 C          0.2642573849        0.8305954266       -1.0991577201
 C          0.6550187181       -0.4638958612       -1.3785955017
 Cl        -0.9445828718        4.4956413098        0.9244242610
 H         -1.8279098329       -4.3191098141       -0.4330005517
 H         -1.3672385847       -2.8351644055        0.1681623237
 H         -0.6517165658       -4.2149777432        0.7434440264
 H         -0.3889777467       -3.1956533434       -2.0500147351
 H          0.3764096676       -4.6441698579       -1.4432413879
 H          2.0172065110       -2.7965254954       -1.4245604061
 H          1.6647659697       -3.2603768801        0.2194080313
 H          0.7304851270       -1.6946420146        1.7496584003
 H          0.0366780116        0.6105742565        2.2518802211
 H         -0.2627392914        2.2295754764        0.4253182368
 H          0.1300956685        1.5381365518       -1.9016557393
 H          0.8219980572       -0.7706092845       -2.3976623610
  22
        -30.73058265
 N         -0.3238601574       -2.7151718716        1.1044490528
 C         -1.1550282975       -1.9310519659        0.1472848298
 C         -0.3251613437       -1.3494694837       -0.9953757252
 C          0.7368740449       -0.4022046186       -0.5175204007
 C          2.0707565463       -0.7833940422       -0.4830912973
 C          3.0389408412        0.0827167442       -0.0149686316
 C          2.6844938269        1.3406479201        0.4292560783
 C          1.3605056453        1.7297069154        0.4057428451
 C          0.3944121339        0.8624373764       -0.0631308707
 Cl        -3.0123962012        1.5524311199       -0.1186707939
 H         -0.8826456107       -3.0947106725        1.8851364549
 H          0.4182508688       -2.1255570172        1.5040331150
 H          0.1344972169       -3.5040478614        0.6292485115
 H         -1.6587097100       -1.1188473264        0.6842208604
 H         -1.9580055401       -2.5651953624       -0.2482502919
 H         -0.9698963362       -0.8292707097       -1.7134267088
 H          0.1435833038       -2.1630336648       -1.5590546786
 H          2.3463144806       -1.7670194109       -0.8248020184
 H          4.0723630938       -0.2243852259        0.0045425494
 H          3.4400728401        2.0172835755        0.7952583509
 H          1.0799669201        2.7103213360        0.7554566945
 H         -0.6411262879        1.1598963455       -0.0756756590
