22
 energy: -30.744123499007 gnorm: 0.000895383184 xtb: 6.5.1 (fef0646)
N            0.94790580386739       -0.34125416318872       -0.00737019005914
C            2.42121066236780       -0.30998549695780       -0.08331337722176
C            3.01721722379703       -1.69506173357122        0.17878807640050
C            4.51963843195271       -1.61375845484820        0.15282730912014
C            5.22148904539793       -1.23935593631220        1.29187479255026
C            6.60013948012548       -1.12816217743106        1.26560356097034
C            7.29537642493882       -1.38942415574558        0.09668080811685
C            6.60457525277295       -1.76316325247809       -1.04350552965286
C            5.22513547624399       -1.87235851715766       -1.01483154577772
Cl          -0.14277854741428        2.44924316238819       -0.54440143410499
H            0.55533249046126        0.61591332796311       -0.20034722611886
H            0.63786436061344       -0.61867277751062        0.92640332466879
H            0.55645030625171       -0.98193900267660       -0.70190315378883
H            2.79286890612231        0.40529043474867        0.64947620863996
H            2.71384547174908        0.04591733934697       -1.07058560541158
H            2.68010008996487       -2.39388426285653       -0.58640713947041
H            2.69494804570301       -2.05582125936279        1.15557641994903
H            4.68798427239847       -1.03626476376478        2.20860162180790
H            7.13543551482730       -0.83781380434916        2.15771551835861
H            8.37159555767140       -1.30290702472828        0.07508675749311
H            7.14310736464587       -1.96976585522646       -1.95670425023916
H            4.69530836554126       -2.16534162628163       -1.90919494623001
