26
 energy: -32.754991983903 gnorm: 0.000626230448 xtb: 6.5.1 (fef0646)
N            2.85709064497408       -1.32222433094138       -1.48173628805161
C            2.42684896989677       -0.04256323150434       -2.04286338085691
C            3.03351491718253        1.10462328577384       -1.23032870087252
C            4.54117901685277        1.02466766643178       -1.18164310400759
C            5.28269605620628        1.12177516361694       -2.27780847828687
C            6.77469297964255        0.98871958677400       -2.30169208169540
C            7.29635798809950        0.35696458028328       -1.01467836614868
C            6.65011084770577        1.04265716666851        0.18289496643355
C            5.14423103951069        0.79444644182493        0.17515440229654
Cl           2.20317285458954       -1.51338771014314        1.35759074759792
H            2.43113533276742       -2.10347602316827       -1.96712117434242
H            2.49841245261169       -1.40275391211747        0.00816853330057
H            3.86698736615622       -1.40116722551325       -1.54690247353965
H            1.33720505970870        0.00095431979422       -1.98220849271072
H            2.71822666816120        0.05463864527067       -3.09745429070164
H            2.63546757942070        1.05681599105271       -0.21763009524378
H            2.72038652593729        2.04835938501886       -1.68149427683382
H            4.81545123346423        1.31854167078878       -3.23472801610279
H            7.21806467627539        1.98194450137654       -2.43235999706898
H            7.07428909943025        0.39101781693106       -3.16735849860906
H            8.38316508025967        0.44692037252809       -0.96765943917393
H            7.04635900524941       -0.70646801770903       -0.99902941129128
H            6.84238533885650        2.11617446052645        0.12355343436953
H            7.08255262137926        0.67376021983940        1.11454310959508
H            4.65637237298006        1.45312967017598        0.89748695857046
H            4.92858427269083       -0.23054049357945        0.49294441337569
