  12
  -15.774942129999999       0.18621458779890657      !md2
 N          1.0923814521        1.1446580699       -0.2377901737
 C          2.0241026869        0.1867499867        0.4194855538
 C          1.9386862192       -1.1961079436       -0.1931184848
 Cl        -2.1477091277       -0.1152271790        0.0302214680
 H          1.1344489591        2.0871047076        0.1846853277
 H          0.1124831862        0.8099182539       -0.1666452546
 H          1.3086433879        1.2411892694       -1.2423861005
 H          1.8016187653        0.1412030665        1.4938860602
 H          3.0504537219        0.5712567607        0.3522017097
 H          2.1878422193       -1.1712606596       -1.2561610953
 H          0.9276953686       -1.6011057086       -0.1105346778
 H          2.6180137858       -1.9040171588        0.2888760997
  12
  -15.774905280000000       0.17909300047617843      !md7
 N          1.0902636383        1.1374321462       -0.2381827053
 C          2.0267244466        0.1851651494        0.4205868928
 C          1.9536253981       -1.1972378569       -0.1945552920
 Cl        -2.1540673147       -0.1106873663        0.0305904144
 H          1.1274814938        2.0805414180        0.1833207530
 H          0.1116633560        0.7986093069       -0.1672548940
 H          1.3065402784        1.2342253775       -1.2428109854
 H          1.8009693810        0.1361775453        1.4940623406
 H          3.0503644703        0.5772752818        0.3573109450
 H          2.6386805761       -1.9001182132        0.2866586228
 H          2.2033103434       -1.1684188545       -1.2574380700
 H          0.9459993500       -1.6109224346       -0.1134516685
  12
  -15.774867300000000       0.17203793186041597      !md1
 N          1.0906304667        1.1379229587       -0.2378094071
 C          2.0274385347        0.1854531528        0.4201691254
 C          1.9527344479       -1.1972046085       -0.1942375623
 Cl        -2.1541605873       -0.1110477272        0.0304507163
 H          1.1284588927        2.0810083066        0.1836900052
 H          0.1120201514        0.7993130667       -0.1660526011
 H          1.3060499906        1.2346046470       -1.2426307793
 H          1.8033697023        0.1370717180        1.4940181317
 H          3.0511797729        0.5770068620        0.3550301560
 H          0.9457910402       -1.6116316766       -0.1089492107
 H          2.6402963990       -1.8994688805        0.2843329665
 H          2.1981340317       -1.1685079703       -1.2581232853
  12
  -15.774656530000000       0.13764518622177399      !gc
 N          1.0838016714        1.1317503543        0.3012320042
 C          2.0370846490        0.1988744174       -0.3611469232
 C          1.9414225657       -1.2033525398        0.2040057287
 Cl        -2.1500181895       -0.1108234657       -0.0884972905
 H          1.1343940229        2.0878407430       -0.0884333704
 H          1.2721297061        1.1958428420        1.3183808593
 H          0.1112183604        0.7988426956        0.1921126686
 H          3.0593880850        0.5847521915       -0.2534463982
 H          1.8440620387        0.1872422894       -1.4420334052
 H          2.1560602407       -1.2111911376        1.2748539085
 H          2.6407823769       -1.8914805173       -0.2779990368
 H          0.9363057267       -1.6112365747        0.0759010301
  12
  -15.774633010000001       0.13426165122688097      !md8
 N          1.0838966021        1.1315797876        0.3010115518
 C          2.0380309792        0.1990423118       -0.3606385106
 C          1.9417728136       -1.2034299652        0.2037671850
 Cl        -2.1505859174       -0.1107768890       -0.0884958465
 H          1.1347705974        2.0878157281       -0.0882584218
 H          1.2713055739        1.1953628078        1.3183471529
 H          0.1114256640        0.7986194396        0.1910261492
 H          3.0601996973        0.5849212841       -0.2516696773
 H          1.8461808663        0.1878869130       -1.4417391686
 H          2.6404780534       -1.8917114339       -0.2789199048
 H          0.9363741686       -1.6106226775        0.0757888274
 H          2.1568054510       -1.2120056266        1.2745581257
  12
  -15.774631019999999       0.13397921948094527      !mtd8
 N          1.0849181982        1.1339558053        0.3012874409
 C          2.0354738347        0.1988099229       -0.3617914847
 C          1.9379036436       -1.2028097397        0.2045432755
 Cl        -2.1484144355       -0.1120874052       -0.0884842881
 H          1.1360959784        2.0894741024       -0.0897065772
 H          1.2752365130        1.1991164334        1.3180014098
 H          0.1116657650        0.8023488426        0.1942354557
 H          3.0586867367        0.5827883224       -0.2559753927
 H          1.8407949246        0.1867583686       -1.4423779508
 H          0.9313100827       -1.6080319901        0.0799165271
 H          2.1560080380       -1.2105917571        1.2747085161
 H          2.6337443403       -1.8931394350       -0.2794182117
  12
  -15.772813400000000        1.9575692179751452E-002 !md3
 N          0.9739884780        0.5457506628       -0.3109899158
 C          1.6802239037       -0.6757497348        0.1655447552
 C          3.1783125309       -0.5802973079       -0.0374032133
 Cl        -2.4814364680        0.2516836455        0.0998619281
 H         -0.0512606749        0.4785633516       -0.1836265080
 H          1.1545781472        0.7098763637       -1.3182521168
 H          1.2993057247        1.3833962166        0.1969076621
 H          1.2805458198       -1.5547617425       -0.3572440199
 H          1.4489880435       -0.8399677711        1.2263288326
 H          3.5948988493        0.2729409103        0.5022965759
 H          3.4240693188       -0.4424933134       -1.0926508954
 H          3.6997742326       -1.4766730373        0.3083413306
  12
  -15.772772399999999        1.8744541933237255E-002 !md3
 N          0.9753847859        0.5506645497       -0.2995029312
 C          1.6785461780       -0.6850954021        0.1436736024
 C          3.1799314770       -0.5747351956       -0.0244099672
 Cl        -2.4821176697        0.2506362192        0.0974073800
 H         -0.0511930055        0.4774704290       -0.1870356420
 H          1.1684795481        0.7505920681       -1.2979468695
 H          1.2915083629        1.3705309788        0.2420603450
 H          1.2943087977       -1.5450335529       -0.4207468230
 H          1.4268012419       -0.8913491202        1.1923795179
 H          3.4467623029       -0.3976853242       -1.0686010013
 H          3.6993540720       -1.4803374217        0.2997407534
 H          3.5801355903        0.2603364816        0.5547526970
  12
  -15.772757340000000        1.8448188821910162E-002 !mtd2
 N          0.9758742321        0.5521243671       -0.2982465807
 C          1.6778216137       -0.6856048166        0.1413371763
 C          3.1795758109       -0.5749203780       -0.0231002549
 Cl        -2.4819149175        0.2502255189        0.0971844415
 H         -0.0507841025        0.4793539933       -0.1862620295
 H          1.1692029035        0.7544977837       -1.2961502721
 H          1.2927044432        1.3702211035        0.2455689884
 H          1.2945961482       -1.5431519956       -0.4273885717
 H          1.4237751895       -0.8962046489        1.1886199548
 H          3.6980629278       -1.4822063651        0.2977700189
 H          3.5789252231        0.2571582982        0.5609262931
 H          3.4486135061       -0.3927067447       -1.0658637115
