  12
        -15.86085441
 N          1.1067130658        1.1508675738        0.2384195015
 C          2.0303081239        0.1816170776       -0.4226998620
 C          1.9443063015       -1.2001303434        0.1953766748
 Cl        -2.1596475107       -0.1141559319       -0.0299341070
 H          1.1526765399        2.0865652811       -0.1888218975
 H          1.3302276364        1.2477304406        1.2380811463
 H          0.1284017784        0.8206516936        0.1733854616
 H          3.0593773821        0.5598011718       -0.3668700665
 H          1.7996958396        0.1314586854       -1.4947565812
 H          2.2034240055       -1.1742908124        1.2550738796
 H          2.6155539280       -1.9115693675       -0.2904086016
 H          0.9316880665       -1.6009302407        0.1229348397
