  12
        -15.77494213
 N          1.0923814521        1.1446580699       -0.2377901737
 C          2.0241026869        0.1867499867        0.4194855538
 C          1.9386862192       -1.1961079436       -0.1931184848
 Cl        -2.1477091277       -0.1152271790        0.0302214680
 H          1.1344489591        2.0871047076        0.1846853277
 H          0.1124831862        0.8099182539       -0.1666452546
 H          1.3086433879        1.2411892694       -1.2423861005
 H          1.8016187653        0.1412030665        1.4938860602
 H          3.0504537219        0.5712567607        0.3522017097
 H          2.1878422193       -1.1712606596       -1.2561610953
 H          0.9276953686       -1.6011057086       -0.1105346778
 H          2.6180137858       -1.9040171588        0.2888760997
  12
        -15.77465653
 N          1.0838016714        1.1317503543        0.3012320042
 C          2.0370846490        0.1988744174       -0.3611469232
 C          1.9414225657       -1.2033525398        0.2040057287
 Cl        -2.1500181895       -0.1108234657       -0.0884972905
 H          1.1343940229        2.0878407430       -0.0884333704
 H          1.2721297061        1.1958428420        1.3183808593
 H          0.1112183604        0.7988426956        0.1921126686
 H          3.0593880850        0.5847521915       -0.2534463982
 H          1.8440620387        0.1872422894       -1.4420334052
 H          2.1560602407       -1.2111911376        1.2748539085
 H          2.6407823769       -1.8914805173       -0.2779990368
 H          0.9363057267       -1.6112365747        0.0759010301
  12
        -15.77281340
 N          0.9739884780        0.5457506628       -0.3109899158
 C          1.6802239037       -0.6757497348        0.1655447552
 C          3.1783125309       -0.5802973079       -0.0374032133
 Cl        -2.4814364680        0.2516836455        0.0998619281
 H         -0.0512606749        0.4785633516       -0.1836265080
 H          1.1545781472        0.7098763637       -1.3182521168
 H          1.2993057247        1.3833962166        0.1969076621
 H          1.2805458198       -1.5547617425       -0.3572440199
 H          1.4489880435       -0.8399677711        1.2263288326
 H          3.5948988493        0.2729409103        0.5022965759
 H          3.4240693188       -0.4424933134       -1.0926508954
 H          3.6997742326       -1.4766730373        0.3083413306
