  12
        -15.86085441
 N          1.1067130658        1.1508675738        0.2384195015
 C          2.0303081239        0.1816170776       -0.4226998620
 C          1.9443063015       -1.2001303434        0.1953766748
 Cl        -2.1596475107       -0.1141559319       -0.0299341070
 H          1.1526765399        2.0865652811       -0.1888218975
 H          1.3302276364        1.2477304406        1.2380811463
 H          0.1284017784        0.8206516936        0.1733854616
 H          3.0593773821        0.5598011718       -0.3668700665
 H          1.7996958396        0.1314586854       -1.4947565812
 H          2.2034240055       -1.1742908124        1.2550738796
 H          2.6155539280       -1.9115693675       -0.2904086016
 H          0.9316880665       -1.6009302407        0.1229348397
  12
        -15.86077098
 N          1.1092501132        1.1573757308        0.2347597429
 C          2.0347573994        0.1844418656       -0.4183256923
 C          1.9306474182       -1.1995472562        0.1918729687
 Cl        -2.1569311273       -0.1186539354       -0.0285154251
 H          0.1329115635        0.8324525237        0.1597945653
 H          1.1641186773        2.0936175615       -0.1904874033
 H          1.3232614497        1.2516246225        1.2395691643
 H          3.0656202812        0.5549773913       -0.3466284225
 H          1.8184325886        0.1408508655       -1.4936432456
 H          2.6031175301       -1.9136446885       -0.2886561246
 H          0.9164895500       -1.5925061387        0.1041515131
 H          2.1760368810       -1.1807919503        1.2551019954
  12
        -15.86023486
 N          0.9950760339        0.5748673004        0.2933558773
 C          1.6797021572       -0.6815494304       -0.1335861208
 C          3.1853969700       -0.5942579149        0.0203713451
 Cl        -2.4942590319        0.2464393411       -0.0964107881
 H          1.3167193964        1.3767212569       -0.2655840566
 H          1.1968013212        0.7861210593        1.2800896744
 H         -0.0333161344        0.5091903513        0.1884698859
 H          1.4172162396       -0.9036406285       -1.1762057970
 H          1.2873617950       -1.5261031890        0.4476172758
 H          3.6853870950       -1.5140547445       -0.2911910699
 H          3.4647207336       -0.4035784837        1.0577058522
 H          3.5957855704        0.2215436539       -0.5772182899
  12
        -15.85237514
 N          1.6577324117        1.4415303239        0.3877574011
 C          1.6221492057        0.2487776194       -0.5105850435
 C          1.5366427725       -1.0504576213        0.2661287765
 Cl        -2.0894726039       -0.3438337500       -0.0968524043
 H          1.7144872246        2.3227073783       -0.1408360174
 H          2.4678023076        1.3993781973        1.0198087759
 H          0.8107519217        1.4794789995        0.9748488065
 H          2.5119747789        0.2480094236       -1.1535467356
 H          0.7706251183        0.3352396236       -1.1979620232
 H          0.6440610833       -1.0758118644        0.8934448430
 H          2.3962353356       -1.1718320077        0.9270186467
 H          1.5012675147       -1.9220951858       -0.3914627486
  12
        -15.85191588
 N          1.9693456269        1.4106776715        0.2437621976
 C          1.3005411751        0.1373497150       -0.1592323069
 C          2.1459944673       -1.0806475739        0.1571830127
 Cl        -2.3704399572       -0.2720848177       -0.1206976287
 H          1.3924648614        2.2348566283        0.0278989248
 H          2.8691195344        1.5196059124       -0.2416551827
 H          2.1631053961        1.4168329233        1.2562538603
 H          1.0690663386        0.1695844526       -1.2319331944
 H          0.3273800915        0.0620753689        0.3427097453
 H          2.3583072346       -1.1460082513        1.2255783801
 H          3.1065245891       -1.0384453371       -0.3585952190
 H          1.6548344263       -2.0108077954       -0.1378253969
  12
        -15.85188925
 N          1.8556747963        1.5751788438        0.1777540157
 C          2.3455166065        0.2271707170       -0.2395660077
 C          1.3244070614       -0.8610130606        0.0280234534
 Cl        -2.3807616760       -0.4798426392       -0.0021862122
 H          2.5454521843        2.3144709610       -0.0134109146
 H          1.6458231951        1.5914050888        1.1842200292
 H          0.9864534844        1.8172083184       -0.3211268402
 H          3.2851057168        0.0020321489        0.2817224479
 H          2.6061561864        0.2473965993       -1.3057401456
 H          1.0755865065       -0.9158555019        1.0890965859
 H          1.6824076296       -1.8465522729       -0.2774666443
 H          0.3944759112       -0.6683016256       -0.5097042507
  12
        -15.85176496
 N          1.7453015180        1.4502806799        0.3913237843
 C          1.5583671433        0.2673877399       -0.5012003960
 C          1.5310279854       -1.0355514595        0.2735794796
 Cl        -2.1039670980       -0.3618245930       -0.1053669977
 H          2.6278138709        1.3776085702        0.9139980935
 H          0.9844262630        1.5093045325        1.0806614823
 H          1.7621018879        2.3362159376       -0.1373348978
 H          2.3591135197        0.2454062155       -1.2519043627
 H          0.6300232474        0.3863141846       -1.0748248941
 H          1.3884855865       -1.9000029862       -0.3787413012
 H          0.7229160509       -1.0404389505        1.0067034970
 H          2.4622223232       -1.1875146230        0.8220715578
  12
        -15.85173065
 N          1.8252041688        1.5868530103       -0.0695567442
 C          2.3549690599        0.2046154921        0.1302164383
 C          1.3140315002       -0.8561028556       -0.1694403134
 Cl        -2.3655414377       -0.4785980761        0.0537762113
 H          2.5296024091        2.3061963830        0.1430584403
 H          1.0104978705        1.7547906739        0.5349338317
 H          1.5176442476        1.7236866499       -1.0440789345
 H          2.7182488847        0.0977958247        1.1607057182
 H          3.2394914613        0.0573668896       -0.5029793508
 H          0.4407431678       -0.7431408049        0.4750667381
 H          1.7013444942       -1.8668286818       -0.0239845943
 H          0.9629628663       -0.7838025860       -1.2002569273
  12
        -15.85165006
 N          2.1128333032        1.6252042047       -0.1299949520
 C          2.3629336785        0.2070419182        0.2670147095
 C          1.2813885572       -0.7282593692       -0.2368566206
 Cl        -2.4928485687       -0.5522255096        0.0572233708
 H          2.8465032783        2.2582555136        0.2158692802
 H          1.2120134903        1.9540003029        0.2408049585
 H          2.0743366898        1.7164438512       -1.1561300677
 H          2.4402962116        0.1420779752        1.3602418897
 H          3.3439053755       -0.1103748460       -0.1097888184
 H          0.3028593813       -0.4439159155        0.1533009007
 H          1.4632091752       -1.7646627284        0.0556964796
 H          1.2123855822       -0.7012774109       -1.3256942704
  12
        -15.85148967
 N          1.9376556577        1.5945010667        0.1785470994
 C          2.3699355146        0.2235571100       -0.2274225285
 C          1.2906092697       -0.8127133517        0.0168392018
 Cl        -2.4154310183       -0.5081904218       -0.0026463807
 H          2.6685277030        2.2976779790        0.0051389822
 H          1.7042667509        1.6217727497        1.1795307212
 H          1.0944347213        1.8797553481       -0.3414729666
 H          3.2850252725       -0.0469843879        0.3154512389
 H          2.6557535381        0.2297547793       -1.2872995949
 H          1.0158340711       -0.8544623116        1.0720993985
 H          1.6061531568       -1.8149864895       -0.2808996817
 H          0.3834495590       -0.5746245477       -0.5412237466
  12
        -15.85135786
 N          1.9658019112        1.4589701656       -0.2775700424
 C          1.4449521282        0.3076170146        0.5188121473
 C          1.5862370183       -1.0098270558       -0.2180830680
 Cl        -2.1883576369       -0.3927581306        0.0203006373
 H          1.8612489960        2.3526733592        0.2214576711
 H          1.4668190884        1.5376839033       -1.1730661823
 H          2.9659650257        1.3321331299       -0.4929483501
 H          0.3926357493        0.4871469993        0.7746938969
 H          1.9702788175        0.2616520798        1.4815734409
 H          1.0422439642       -0.9922370982       -1.1638825194
 H          1.2046633324       -1.8509021194        0.3648036882
 H          2.6310520934       -1.2198841665       -0.4530871988
  12
        -15.85131580
 N          1.9205936047        1.4568030429        0.3810177375
 C          1.4828397659        0.3062018180       -0.4648453127
 C          1.5597021457       -1.0132029303        0.2780861974
 Cl        -2.1703446532       -0.3898053831       -0.1166988656
 H          2.8934783814        1.3333929611        0.6897767111
 H          1.3381616425        1.5307093936        1.2250999316
 H          1.8601943586        2.3541933336       -0.1244506181
 H          2.0975744412        0.2658372196       -1.3735411583
 H          0.4588029873        0.4821943083       -0.8187512845
 H          1.2395721041       -1.8540828751       -0.3412459939
 H          0.9280247598       -1.0014518625        1.1676725385
 H          2.5784562782       -1.2191788018        0.6109468413
  12
        -15.85131110
 N          1.9255427530        1.4044306099        0.1194605303
 C          1.2288755399        0.0850969355        0.0491318364
 C          2.2011803485       -1.0781227001        0.0505010043
 Cl        -2.3445600565       -0.2495087004       -0.0982478167
 H          1.2630064478        2.1916186114        0.1191195115
 H          2.5589587725        1.5253190109       -0.6813261459
 H          2.4956197316        1.4716852066        0.9757558917
 H          0.6000738627        0.0517337767       -0.8501992669
 H          0.5305891530       -0.0044790669        0.8913845817
 H          2.8838445552       -1.0219841267       -0.7989813857
 H          1.6902467155       -2.0420080921       -0.0014187404
 H          2.8132463664       -1.0788937641        0.9541009009
