  12
  -15.860854410000000        4.8811094732372037E-002 !md2
 N          1.1067130658        1.1508675738        0.2384195015
 C          2.0303081239        0.1816170776       -0.4226998620
 C          1.9443063015       -1.2001303434        0.1953766748
 Cl        -2.1596475107       -0.1141559319       -0.0299341070
 H          1.1526765399        2.0865652811       -0.1888218975
 H          1.3302276364        1.2477304406        1.2380811463
 H          0.1284017784        0.8206516936        0.1733854616
 H          3.0593773821        0.5598011718       -0.3668700665
 H          1.7996958396        0.1314586854       -1.4947565812
 H          2.2034240055       -1.1742908124        1.2550738796
 H          2.6155539280       -1.9115693675       -0.2904086016
 H          0.9316880665       -1.6009302407        0.1229348397
  12
  -15.860818500000001        4.6991083048349334E-002 !md8
 N          1.1021911050        1.1483927255       -0.2988881129
 C          2.0432533126        0.1955631970        0.3615169821
 C          1.9279247940       -1.2055856570       -0.2060186649
 Cl        -2.1556506416       -0.1161605888        0.0876581788
 H          1.2937039306        1.2138890517       -1.3076036409
 H          1.1647360332        2.0964147196        0.0982255994
 H          0.1255396703        0.8240179216       -0.1928742779
 H          1.8505504955        0.1829445965        1.4422504698
 H          3.0716013418        0.5647961888        0.2564838601
 H          0.9169212354       -1.5976214480       -0.0829701214
 H          2.6132541143       -1.9043069695        0.2785635234
 H          2.1479394401       -1.2169941303       -1.2748907430
  12
  -15.860818360000000        4.6984121962914120E-002 !gc
 N          1.1016130007        1.1467585642       -0.2986424886
 C          2.0453888959        0.1957780098        0.3605642056
 C          1.9308033236       -1.2060691682       -0.2054210803
 Cl        -2.1574517558       -0.1152554767        0.0876551147
 H          1.2910085062        1.2116670437       -1.3077912660
 H          1.1637366724        2.0951830874        0.0975836919
 H          0.1255176341        0.8213393522       -0.1906029952
 H          1.8549080027        0.1838671014        1.4416950633
 H          3.0730168377        0.5662997609        0.2531006474
 H          2.1506836903       -1.2186142669       -1.2741701109
 H          0.9202141696       -1.5985006460       -0.0816803558
 H          2.6167965541       -1.9040270888        0.2799771284
  12
  -15.860810510000000        4.6595449425552861E-002 !gc
 N          1.1092795421        1.1568672881        0.2353877400
 C          2.0340792612        0.1840740722       -0.4189341003
 C          1.9322613431       -1.1995843250        0.1923902268
 Cl        -2.1572667713       -0.1182123020       -0.0287052683
 H          1.1628625256        2.0928739062       -0.1903906270
 H          1.3244383913        1.2514084765        1.2370661204
 H          0.1302975285        0.8305404855        0.1619889141
 H          3.0648541992        0.5553076978       -0.3497372024
 H          1.8154210700        0.1396168448       -1.4937331274
 H          2.6032625131       -1.9138175310       -0.2899831151
 H          0.9179061764       -1.5927768959        0.1082535434
 H          2.1811918291       -1.1802168358        1.2547742916
  12
  -15.860805109999999        4.6329950564879693E-002 !md1
 N          1.1083910181        1.1543491493        0.2350452530
 C          2.0357988001        0.1837561737       -0.4188251989
 C          1.9372825167       -1.2001081032        0.1925933209
 Cl        -2.1596622898       -0.1166614715       -0.0286606670
 H          1.1607677551        2.0907278410       -0.1900889323
 H          1.3223653204        1.2487253245        1.2370036300
 H          0.1299842526        0.8265233022        0.1603692776
 H          3.0656311989        0.5575629744       -0.3492388937
 H          1.8176958398        0.1386693164       -1.4937185094
 H          0.9242976892       -1.5968490584        0.1064433980
 H          2.1839514785       -1.1797036377        1.2551942917
 H          2.6118229742       -1.9122460560       -0.2882528148
  12
  -15.860793090000000        4.5744388589237316E-002 !md1
 N          1.1073854017        1.1509217017        0.2392461845
 C          2.0293524515        0.1812196825       -0.4234818827
 C          1.9451929819       -1.2000517575        0.1959140350
 Cl        -2.1600545430       -0.1141498594       -0.0302122237
 H          1.3323925295        1.2475263076        1.2385696074
 H          0.1314898507        0.8219785896        0.1756851678
 H          1.1530381841        2.0891602971       -0.1892953744
 H          3.0584806405        0.5596423187       -0.3705475707
 H          1.7961365955        0.1302157021       -1.4949406800
 H          2.6161839264       -1.9115672371       -0.2904581259
 H          0.9329917940       -1.6014510168        0.1255481281
 H          2.2061278406       -1.1732547194        1.2552670579
  12
  -15.860789210000000        4.5556956504511213E-002 !md7
 N          1.1013864920        1.1486026646       -0.2975415710
 C          2.0460237433        0.1964926733        0.3587583479
 C          1.9258054035       -1.2058297969       -0.2048349545
 Cl        -2.1555580073       -0.1165479659        0.0877058261
 H          1.1663811968        2.0972682574        0.0975402847
 H          0.1278691159        0.8253990912       -0.1863589071
 H          1.2876151016        1.2126119967       -1.3102053050
 H          1.8605337455        0.1864332052        1.4407800716
 H          3.0739144872        0.5647129450        0.2459852687
 H          2.1380500135       -1.2197502815       -1.2751137038
 H          0.9156450133       -1.5969333885       -0.0735432308
 H          2.6144024527       -1.9040604236        0.2764795587
  12
  -15.860786689999999        4.5435633835337191E-002 !gc
 N          1.1007595908        1.1465294978       -0.2982823690
 C          2.0457858212        0.1959437038        0.3597166030
 C          1.9302261864       -1.2062914142       -0.2050604804
 Cl        -2.1570358503       -0.1152134336        0.0876450170
 H          0.1276925775        0.8211814702       -0.1898376912
 H          1.2894401206        1.2118456785       -1.3075967760
 H          1.1625100768        2.0974510922        0.0992479803
 H          1.8574049016        0.1848018768        1.4412264247
 H          3.0731669647        0.5664848539        0.2499366954
 H          2.1483817790       -1.2196587878       -1.2741619430
 H          0.9198021002       -1.5985719123       -0.0794445597
 H          2.6168613418       -1.9039415590        0.2798958493
  12
  -15.860783800000000        4.5296895599797743E-002 !md3
 N          1.1020179683        1.1483045050       -0.2986017408
 C          2.0438817055        0.1957242293        0.3609856608
 C          1.9278258957       -1.2056905717       -0.2057359290
 Cl        -2.1558567154       -0.1161632283        0.0876857413
 H          1.1644201467        2.0963044568        0.0984849821
 H          0.1281498332        0.8245179952       -0.1922770394
 H          1.2933258341        1.2141164976       -1.3102055495
 H          1.8525772312        0.1836104858        1.4419784957
 H          3.0721093899        0.5648652564        0.2544811781
 H          2.6121404998       -1.9048275620        0.2800511610
 H          2.1486181383       -1.2180238770       -1.2741435949
 H          0.9162500147       -1.5967732321       -0.0831718084
  12
  -15.860781460000000        4.5184871270465457E-002 !gc
 N          1.1020955000        1.1494281670       -0.2982435957
 C          2.0437482752        0.1959635776        0.3603502190
 C          1.9251554086       -1.2055305196       -0.2056707086
 Cl        -2.1546955485       -0.1169300816        0.0876431572
 H          0.1281775331        0.8262162000       -0.1911707976
 H          1.2920417155        1.2149861458       -1.3073079379
 H          1.1656153675        2.0999308547        0.1000115005
 H          1.8538799596        0.1844753575        1.4415971620
 H          3.0722475822        0.5638706679        0.2522427317
 H          0.9136279406       -1.5956297650       -0.0807486048
 H          2.6098299667       -1.9050277108        0.2787270995
 H          2.1436632733       -1.2184326066       -1.2748372941
  12
  -15.860781129999999        4.5169095273878974E-002 !gc
 N          1.1073396813        1.1536378765        0.2350312494
 C          2.0352710557        0.1835736662       -0.4188798151
 C          1.9376847123       -1.2002831639        0.1926891728
 Cl        -2.1591966157       -0.1162735853       -0.0286584595
 H          1.3212058014        1.2476901902        1.2369941043
 H          0.1316882819        0.8263300338        0.1605425457
 H          1.1598032788        2.0926753987       -0.1910738671
 H          3.0648721275        0.5580504861       -0.3494576748
 H          1.8171081733        0.1382870100       -1.4937532863
 H          2.1847598604       -1.1796599486        1.2553566511
 H          2.6121161285       -1.9120020416       -0.2882598706
 H          0.9246892006       -1.5974594783        0.1069884040
  12
  -15.860775340000000        4.4893192653609193E-002 !gc
 N          1.1015053892        1.1478849756       -0.2979204267
 C          2.0459902020        0.1962119240        0.3592530038
 C          1.9277705083       -1.2059990799       -0.2050311567
 Cl        -2.1564191540       -0.1161001390        0.0876381563
 H          0.1282701765        0.8231398692       -0.1893443220
 H          1.2897392682        1.2139990676       -1.3072610832
 H          1.1640302903        2.0984453233        0.1003291346
 H          1.8590629381        0.1856203546        1.4410154744
 H          3.0737344619        0.5653112242        0.2480567041
 H          2.6155827100       -1.9039301349        0.2775530167
 H          2.1423197620       -1.2194778601       -1.2746963637
 H          0.9172919844       -1.5978421728       -0.0759999386
  12
  -15.860774980000000        4.4876093842574620E-002 !gc
 N          1.1011811388        1.1451061508       -0.2993152179
 C          2.0447249395        0.1952268811        0.3617967503
 C          1.9343839390       -1.2063401105       -0.2056743805
 Cl        -2.1585902193       -0.1141745749        0.0876979757
 H          1.1615413265        2.0936449986        0.0967969664
 H          0.1278559922        0.8196062141       -0.1931217360
 H          1.2928241594        1.2103975214       -1.3108953214
 H          1.8514669951        0.1821160622        1.4424271980
 H          3.0719316768        0.5677684051        0.2572789879
 H          0.9248888192       -1.6021492605       -0.0823092540
 H          2.6224793223       -1.9024881381        0.2787104113
 H          2.1541834980       -1.2169423560       -1.2746037438
  12
  -15.860770980000000        4.4686544681400056E-002 !gc
 N          1.1092501132        1.1573757308        0.2347597429
 C          2.0347573994        0.1844418656       -0.4183256923
 C          1.9306474182       -1.1995472562        0.1918729687
 Cl        -2.1569311273       -0.1186539354       -0.0285154251
 H          0.1329115635        0.8324525237        0.1597945653
 H          1.1641186773        2.0936175615       -0.1904874033
 H          1.3232614497        1.2516246225        1.2395691643
 H          3.0656202812        0.5549773913       -0.3466284225
 H          1.8184325886        0.1408508655       -1.4936432456
 H          2.6031175301       -1.9136446885       -0.2886561246
 H          0.9164895500       -1.5925061387        0.1041515131
 H          2.1760368810       -1.1807919503        1.2551019954
  12
  -15.860770609999999        4.4669051889804232E-002 !gc
 N          1.1097866401        1.1588890410        0.2343286658
 C          2.0349298606        0.1849272782       -0.4177293933
 C          1.9273940136       -1.1993027165        0.1913318805
 Cl        -2.1558610251       -0.1196714128       -0.0283162301
 H          0.1332898207        0.8345681975        0.1588905194
 H          1.1656412723        2.0949192213       -0.1912545316
 H          1.3232098956        1.2533480304        1.2392414157
 H          3.0662507709        0.5537577050       -0.3438334852
 H          1.8205487515        0.1424204277       -1.4934795251
 H          2.1701172313       -1.1815641096        1.2550512833
 H          2.5999246883       -1.9139440769       -0.2879312035
 H          0.9126242133       -1.5908644013        0.1008435639
  12
  -15.860768280000000        4.4559051807878142E-002 !gc
 N          1.1097039062        1.1585273600        0.2345457039
 C          2.0347290110        0.1847644984       -0.4179795957
 C          1.9282657301       -1.1993462719        0.1915388884
 Cl        -2.1561197876       -0.1194121589       -0.0283982576
 H          0.1332294791        0.8340412347        0.1595061398
 H          1.1652000933        2.0945641195       -0.1910709496
 H          1.3235310064        1.2530613162        1.2393676160
 H          3.0659552505        0.5540389858       -0.3449980465
 H          1.8195157054        0.1418732514       -1.4935482796
 H          0.9137025318       -1.5913009430        0.1020335944
 H          2.1718835131       -1.1812432085        1.2548840569
 H          2.6008461881       -1.9140279301       -0.2882621842
  12
  -15.860766740000001        4.4486496618156290E-002 !gc
 N          1.1089103285        1.1571378361        0.2341415161
 C          2.0358337676        0.1846502889       -0.4175954412
 C          1.9306525120       -1.1997310989        0.1915162816
 Cl        -2.1571820664       -0.1186077411       -0.0282355677
 H          1.3214397276        1.2518588392        1.2363251477
 H          0.1328590888        0.8313609238        0.1584654806
 H          1.1633484421        2.0957327046       -0.1926863501
 H          3.0664809311        0.5552842300       -0.3434230771
 H          1.8218281215        0.1417574422       -1.4933885253
 H          0.9167760094       -1.5931768808        0.1007112788
 H          2.1730445810       -1.1815449784        1.2551471596
 H          2.6048727637       -1.9133039057       -0.2876533507
  12
  -15.860234860000000        2.5339210649955562E-002 !gc
 N          0.9950760339        0.5748673004        0.2933558773
 C          1.6797021572       -0.6815494304       -0.1335861208
 C          3.1853969700       -0.5942579149        0.0203713451
 Cl        -2.4942590319        0.2464393411       -0.0964107881
 H          1.3167193964        1.3767212569       -0.2655840566
 H          1.1968013212        0.7861210593        1.2800896744
 H         -0.0333161344        0.5091903513        0.1884698859
 H          1.4172162396       -0.9036406285       -1.1762057970
 H          1.2873617950       -1.5261031890        0.4476172758
 H          3.6853870950       -1.5140547445       -0.2911910699
 H          3.4647207336       -0.4035784837        1.0577058522
 H          3.5957855704        0.2215436539       -0.5772182899
  12
  -15.860231030000000        2.5236721540328716E-002 !gc
 N          0.9950785052        0.5746102497        0.2884692710
 C          1.6808180746       -0.6858543691       -0.1246018029
 C          3.1874487151       -0.5906341045        0.0148946928
 Cl        -2.4955770242        0.2467234335       -0.0952987556
 H          1.3119929597        1.3693498727       -0.2831973859
 H          1.2012290449        0.7999344581        1.2711544368
 H         -0.0336383114        0.5052331532        0.1893334729
 H          1.4102937465       -0.9253120486       -1.1612983764
 H          1.2966248953       -1.5225997850        0.4731064618
 H          3.5893889375        0.2178114848       -0.5980014265
 H          3.6882528449       -1.5128415805       -0.2875440900
 H          3.4751095056       -0.3836801428        1.0471229092
  12
  -15.860228660000001        2.5173509115934065E-002 !gc
 N          0.9954439104        0.5756448028        0.2944118172
 C          1.6791613700       -0.6802266071       -0.1355678306
 C          3.1846758820       -0.5956540010        0.0216400498
 Cl        -2.4939138469        0.2461499875       -0.0966879766
 H          1.3190488010        1.3789790431       -0.2612611526
 H          1.1957954455        0.7833898570        1.2821691323
 H         -0.0328581329        0.5114810489        0.1877681914
 H          1.4183778643       -0.8983428149       -1.1794535285
 H          1.2845010811       -1.5262193641        0.4419613783
 H          3.4622580681       -0.4089206334        1.0603281964
 H          3.5973515031        0.2213344159       -0.5722068646
 H          3.6839847015       -1.5152560539       -0.2920492676
  12
  -15.860222070000001        2.4998572219787490E-002 !md5
 N          0.9951947253        0.5763633702        0.2906801611
 C          1.6787564945       -0.6831741751       -0.1287584772
 C          3.1850979426       -0.5936284030        0.0175078380
 Cl        -2.4939027695        0.2460686148       -0.0959134801
 H         -0.0306296047        0.5099366900        0.1893140075
 H          1.3150987395        1.3741878606       -0.2751150683
 H          1.2001279288        0.7956969142        1.2778460223
 H          1.4116832672       -0.9142021038       -1.1682576753
 H          1.2895965938       -1.5230565436        0.4612904309
 H          3.5918614561        0.2187176231       -0.5869800129
 H          3.6843336302       -1.5147782733       -0.2906990196
 H          3.4692557847       -0.3961932604        1.0525697903
  12
  -15.860215560000000        2.4826952654373607E-002 !gc
 N          0.9940856683        0.5724178334        0.2893716863
 C          1.6817455318       -0.6861234661       -0.1263422588
 C          3.1880541002       -0.5895099609        0.0156890471
 Cl        -2.4958227266        0.2473683350       -0.0954568283
 H         -0.0316577137        0.5023079737        0.1895786671
 H          1.3104977913        1.3691977740       -0.2798388812
 H          1.1995749142        0.7961611354        1.2754495811
 H          1.4130521386       -0.9228602611       -1.1641404233
 H          1.2976626446       -1.5250504998        0.4683693095
 H          3.6905763198       -1.5100036024       -0.2896782383
 H          3.4739188044       -0.3861912097        1.0488311448
 H          3.5898020442        0.2219279687       -0.5936011609
  12
  -15.860213809999999        2.4781019629654757E-002 !gc
 N          0.9942711959        0.5731030636        0.2896159855
 C          1.6812253735       -0.6856473627       -0.1266580433
 C          3.1875476139       -0.5902457108        0.0160213877
 Cl        -2.4954980587        0.2471231598       -0.0954804023
 H          1.1998566001        0.7958249826        1.2729688508
 H         -0.0315905750        0.5033602891        0.1902776444
 H          1.3115502094        1.3720118903       -0.2811214952
 H          1.4127947679       -0.9213635364       -1.1647552974
 H          1.2962975285       -1.5247553253        0.4672569144
 H          3.5902062888        0.2207585686       -0.5930096372
 H          3.6893771383       -1.5110481165       -0.2889832919
 H          3.4731708705       -0.3871038245        1.0495732269
  12
  -15.860209760000000        2.4675043137115972E-002 !gc
 N          0.9939462318        0.5715491223        0.2945492309
 C          1.6816492927       -0.6819930721       -0.1359333127
 C          3.1868707600       -0.5925147476        0.0214278917
 Cl        -2.4952181005        0.2474436952       -0.0966011000
 H         -0.0313049736        0.5049992631        0.1875081797
 H          1.3156365315        1.3762246595       -0.2604094387
 H          1.1937248546        0.7797809005        1.2852033587
 H          1.4216797905       -0.9005672689       -1.1799272996
 H          1.2897229641       -1.5294921554        0.4412452715
 H          3.4637896692       -0.4063691096        1.0604000679
 H          3.5967351457        0.2268094518       -0.5711479231
 H          3.6893614672       -1.5098885646       -0.2936979965
  12
  -15.860198850000000        2.4391810185183414E-002 !gc
 N          0.9949508633        0.5742368831        0.2907281777
 C          1.6806401087       -0.6841554932       -0.1286972248
 C          3.1868216526       -0.5919182989        0.0173672142
 Cl        -2.4952762205        0.2467120548       -0.0957771250
 H          1.1987749345        0.7932501709        1.2752880157
 H         -0.0308143352        0.5064171847        0.1891721346
 H          1.3145670927        1.3747302662       -0.2764940328
 H          1.4138731812       -0.9157287243       -1.1681507303
 H          1.2931122115       -1.5247248774        0.4614393835
 H          3.4707102999       -0.3939163217        1.0522538530
 H          3.5919903977        0.2209605688       -0.5871918762
 H          3.6878262734       -1.5124456654       -0.2908660044
  12
  -15.860194340000000        2.4275678614582623E-002 !gc
 N          0.9957908261        0.5768953805        0.2927196825
 C          1.6785429131       -0.6811995751       -0.1323584713
 C          3.1845103148       -0.5954718071        0.0198382860
 Cl        -2.4938618228        0.2457851344       -0.0963282899
 H          1.1984883415        0.7898075039        1.2788472587
 H         -0.0299596550        0.5120936476        0.1891509953
 H          1.3186054454        1.3796323350       -0.2694948941
 H          1.4147501791       -0.9050144714       -1.1742757491
 H          1.2857854424       -1.5242011970        0.4508247657
 H          3.6832521106       -1.5154116045       -0.2933068010
 H          3.4653107152       -0.4061392779        1.0570210009
 H          3.5949188449        0.2205566845       -0.5774211765
  12
  -15.852375139999999        6.1903593821926461E-006 !mtd7
 N          1.6577324117        1.4415303239        0.3877574011
 C          1.6221492057        0.2487776194       -0.5105850435
 C          1.5366427725       -1.0504576213        0.2661287765
 Cl        -2.0894726039       -0.3438337500       -0.0968524043
 H          1.7144872246        2.3227073783       -0.1408360174
 H          2.4678023076        1.3993781973        1.0198087759
 H          0.8107519217        1.4794789995        0.9748488065
 H          2.5119747789        0.2480094236       -1.1535467356
 H          0.7706251183        0.3352396236       -1.1979620232
 H          0.6440610833       -1.0758118644        0.8934448430
 H          2.3962353356       -1.1718320077        0.9270186467
 H          1.5012675147       -1.9220951858       -0.3914627486
  12
  -15.851915880000000        3.8076285998640294E-006 !md1
 N          1.9693456269        1.4106776715        0.2437621976
 C          1.3005411751        0.1373497150       -0.1592323069
 C          2.1459944673       -1.0806475739        0.1571830127
 Cl        -2.3704399572       -0.2720848177       -0.1206976287
 H          1.3924648614        2.2348566283        0.0278989248
 H          2.8691195344        1.5196059124       -0.2416551827
 H          2.1631053961        1.4168329233        1.2562538603
 H          1.0690663386        0.1695844526       -1.2319331944
 H          0.3273800915        0.0620753689        0.3427097453
 H          2.3583072346       -1.1460082513        1.2255783801
 H          3.1065245891       -1.0384453371       -0.3585952190
 H          1.6548344263       -2.0108077954       -0.1378253969
  12
  -15.851889249999999        3.7018283712753517E-006 !mtd13
 N          1.8556747963        1.5751788438        0.1777540157
 C          2.3455166065        0.2271707170       -0.2395660077
 C          1.3244070614       -0.8610130606        0.0280234534
 Cl        -2.3807616760       -0.4798426392       -0.0021862122
 H          2.5454521843        2.3144709610       -0.0134109146
 H          1.6458231951        1.5914050888        1.1842200292
 H          0.9864534844        1.8172083184       -0.3211268402
 H          3.2851057168        0.0020321489        0.2817224479
 H          2.6061561864        0.2473965993       -1.3057401456
 H          1.0755865065       -0.9158555019        1.0890965859
 H          1.6824076296       -1.8465522729       -0.2774666443
 H          0.3944759112       -0.6683016256       -0.5097042507
  12
  -15.851764960000001        3.2456116265327443E-006 !md1
 N          1.7453015180        1.4502806799        0.3913237843
 C          1.5583671433        0.2673877399       -0.5012003960
 C          1.5310279854       -1.0355514595        0.2735794796
 Cl        -2.1039670980       -0.3618245930       -0.1053669977
 H          2.6278138709        1.3776085702        0.9139980935
 H          0.9844262630        1.5093045325        1.0806614823
 H          1.7621018879        2.3362159376       -0.1373348978
 H          2.3591135197        0.2454062155       -1.2519043627
 H          0.6300232474        0.3863141846       -1.0748248941
 H          1.3884855865       -1.9000029862       -0.3787413012
 H          0.7229160509       -1.0404389505        1.0067034970
 H          2.4622223232       -1.1875146230        0.8220715578
  12
  -15.851730650000000        3.1298877776916082E-006 !md2
 N          1.8252041688        1.5868530103       -0.0695567442
 C          2.3549690599        0.2046154921        0.1302164383
 C          1.3140315002       -0.8561028556       -0.1694403134
 Cl        -2.3655414377       -0.4785980761        0.0537762113
 H          2.5296024091        2.3061963830        0.1430584403
 H          1.0104978705        1.7547906739        0.5349338317
 H          1.5176442476        1.7236866499       -1.0440789345
 H          2.7182488847        0.0977958247        1.1607057182
 H          3.2394914613        0.0573668896       -0.5029793508
 H          0.4407431678       -0.7431408049        0.4750667381
 H          1.7013444942       -1.8668286818       -0.0239845943
 H          0.9629628663       -0.7838025860       -1.2002569273
  12
  -15.851650060000001        2.8740357533716856E-006 !mtd12
 N          2.1128333032        1.6252042047       -0.1299949520
 C          2.3629336785        0.2070419182        0.2670147095
 C          1.2813885572       -0.7282593692       -0.2368566206
 Cl        -2.4928485687       -0.5522255096        0.0572233708
 H          2.8465032783        2.2582555136        0.2158692802
 H          1.2120134903        1.9540003029        0.2408049585
 H          2.0743366898        1.7164438512       -1.1561300677
 H          2.4402962116        0.1420779752        1.3602418897
 H          3.3439053755       -0.1103748460       -0.1097888184
 H          0.3028593813       -0.4439159155        0.1533009007
 H          1.4632091752       -1.7646627284        0.0556964796
 H          1.2123855822       -0.7012774109       -1.3256942704
  12
  -15.851489669999999        2.4253924764070107E-006 !mtd2
 N          1.9376556577        1.5945010667        0.1785470994
 C          2.3699355146        0.2235571100       -0.2274225285
 C          1.2906092697       -0.8127133517        0.0168392018
 Cl        -2.4154310183       -0.5081904218       -0.0026463807
 H          2.6685277030        2.2976779790        0.0051389822
 H          1.7042667509        1.6217727497        1.1795307212
 H          1.0944347213        1.8797553481       -0.3414729666
 H          3.2850252725       -0.0469843879        0.3154512389
 H          2.6557535381        0.2297547793       -1.2872995949
 H          1.0158340711       -0.8544623116        1.0720993985
 H          1.6061531568       -1.8149864895       -0.2808996817
 H          0.3834495590       -0.5746245477       -0.5412237466
  12
  -15.851357860000000        2.1096302500302733E-006 !mtd1
 N          1.9658019112        1.4589701656       -0.2775700424
 C          1.4449521282        0.3076170146        0.5188121473
 C          1.5862370183       -1.0098270558       -0.2180830680
 Cl        -2.1883576369       -0.3927581306        0.0203006373
 H          1.8612489960        2.3526733592        0.2214576711
 H          1.4668190884        1.5376839033       -1.1730661823
 H          2.9659650257        1.3321331299       -0.4929483501
 H          0.3926357493        0.4871469993        0.7746938969
 H          1.9702788175        0.2616520798        1.4815734409
 H          1.0422439642       -0.9922370982       -1.1638825194
 H          1.2046633324       -1.8509021194        0.3648036882
 H          2.6310520934       -1.2198841665       -0.4530871988
  12
  -15.851315800000000        2.0177943726755231E-006 !gc
 N          1.9205936047        1.4568030429        0.3810177375
 C          1.4828397659        0.3062018180       -0.4648453127
 C          1.5597021457       -1.0132029303        0.2780861974
 Cl        -2.1703446532       -0.3898053831       -0.1166988656
 H          2.8934783814        1.3333929611        0.6897767111
 H          1.3381616425        1.5307093936        1.2250999316
 H          1.8601943586        2.3541933336       -0.1244506181
 H          2.0975744412        0.2658372196       -1.3735411583
 H          0.4588029873        0.4821943083       -0.8187512845
 H          1.2395721041       -1.8540828751       -0.3412459939
 H          0.9280247598       -1.0014518625        1.1676725385
 H          2.5784562782       -1.2191788018        0.6109468413
  12
  -15.851311100000000        2.0077837551900104E-006 !md5
 N          1.9255427530        1.4044306099        0.1194605303
 C          1.2288755399        0.0850969355        0.0491318364
 C          2.2011803485       -1.0781227001        0.0505010043
 Cl        -2.3445600565       -0.2495087004       -0.0982478167
 H          1.2630064478        2.1916186114        0.1191195115
 H          2.5589587725        1.5253190109       -0.6813261459
 H          2.4956197316        1.4716852066        0.9757558917
 H          0.6000738627        0.0517337767       -0.8501992669
 H          0.5305891530       -0.0044790669        0.8913845817
 H          2.8838445552       -1.0219841267       -0.7989813857
 H          1.6902467155       -2.0420080921       -0.0014187404
 H          2.8132463664       -1.0788937641        0.9541009009
