18
 energy: -22.154174973203 gnorm: 0.000758801646 xtb: 6.5.1 (fef0646)
N            1.14900010891622       -0.36635633552948        0.12078966364566
C            2.60020062557192       -0.19928887982499        0.05043972177415
C            3.01826512412482        1.22574473251670        0.42695853542255
C            2.69689301794692        1.53570245136360        1.88745691489594
C            4.51172167198720        1.40199505009841        0.16259946771453
Cl          -0.24353238387002        1.63888300642046       -1.48742251046168
H            0.86990664380877       -1.27764820975574       -0.22389151775585
H            0.43293955580822        0.69733876978367       -0.73819364416212
H            0.82040214266799       -0.26231380940990        1.07425953284740
H            2.89865713774791       -0.39660739337068       -0.98181304767845
H            3.12572530597500       -0.91500628549063        0.69976739482773
H            2.46005030299722        1.91765051085698       -0.20910640739174
H            3.15753432418014        0.80190902233574        2.54712887606156
H            1.62368368102534        1.54370344579630        2.06038180567618
H            3.08099258837620        2.51762550491088        2.15153906098863
H            5.09234295571274        0.71643870263644        0.77714453269421
H            4.82028867531746        2.41707082851833        0.39759636646151
H            4.74291852170557        1.20768888814397       -0.88190474556045
