22
 energy: -34.978327396979 gnorm: 0.000386878965 xtb: 6.5.1 (fef0646)
N            1.13229375618878        0.29191470113710        0.33486242756479
C            2.59545801865290        0.48436609836021        0.34719386489818
C            3.08461927086874        0.78602397889879       -1.06989507469014
C            4.58576098448935        0.77559276015868       -1.12668703895350
C            5.26962045482739       -0.43419514861443       -1.17633686481560
C            6.65195580597059       -0.46920960738752       -1.20636708463265
C            7.33858118559989        0.72918810843016       -1.18453306917949
F            8.70750032307363        0.70567438984703       -1.21857689244537
C            6.69469661836864        1.94876661535283       -1.13404853020927
C            5.31056420766712        1.96040213951682       -1.10262864278984
Cl           0.48755634931524       -1.90359697784960       -1.69883367163983
H            0.77673098506971        0.03428811556803        1.25799265006667
H            0.88775724288212       -0.48114569700596       -0.33598283328475
H            0.65681024303206        1.13476109599975        0.00400733837941
H            3.06578249835139       -0.43360357732977        0.69829499235407
H            2.85715698105002        1.30094126542475        1.02083876385241
H            2.71283871748538        1.75556590695364       -1.39817977281152
H            2.68627357673920        0.01598834813642       -1.73296390303130
H            4.71447983655259       -1.35935936121792       -1.20450528367576
H            7.19510469633435       -1.39943411327852       -1.25029563003078
H            7.27018591991580        2.85999502449432       -1.12260450099318
H            4.79504232756500        2.90712593440530       -1.06733124393215
