  15
  -16.107091189999998        8.9010525232056464E-002 !mtd1
 N         -1.9975395997        0.5832764110        0.0327972501
 C         -1.1382618602       -0.5618833445       -0.3967133801
 C          0.1481021120       -0.7025373488        0.4211292637
 C          1.1344409988        0.3946922790        0.1880261221
 C          2.3650621940        0.1981041535       -0.2411119963
 H         -2.8684561491        0.6300691308       -0.5176366807
 H         -1.5151701111        1.4861242844       -0.0830364130
 H         -2.2658319971        0.4965505822        1.0240454741
 H         -0.8885715917       -0.4472186644       -1.4588032555
 H         -1.7303712702       -1.4844897364       -0.3283805274
 H          0.6262129833       -1.6642854184        0.1991911595
 H         -0.0993388892       -0.7458593873        1.4884342435
 H          0.8133566117        1.4020994060        0.4023397683
 H          2.7332674447       -0.7869497208       -0.4543712269
 H          3.0510531798        1.0118673442       -0.3859069451
  15
  -16.106725550000000        6.0451189962406671E-002 !mtd6
 N         -1.8787274403        0.6373667351       -0.0664523616
 C         -1.0599452361       -0.5641138498       -0.4105886817
 C          0.1278276974       -0.7738832996        0.5303566862
 C          1.1610664869        0.3000831619        0.4376887110
 C          2.1377550995        0.2937072091       -0.4462537805
 H         -2.6776070218        0.7496468754       -0.7089971686
 H         -1.3194720485        1.5011859384       -0.1169176296
 H         -2.2600260258        0.5672139108        0.8884357994
 H         -0.7017628435       -0.4702926164       -1.4430357156
 H         -1.7119704630       -1.4478657134       -0.4007068613
 H          0.6049884387       -1.7407951623        0.3285063489
 H         -0.2359369662       -0.8470027769        1.5623719426
 H          1.0855563396        1.1306247653        1.1240803187
 H          2.2519601450       -0.5107803633       -1.1469214040
 H          2.8691115227        1.0792398288       -0.4885223070
  15
  -16.106723250000002        6.0304239846204616E-002 !mtd1
 N         -1.8843572431        0.6257182133       -0.1334058973
 C         -1.0728750920       -0.4572341312        0.4999824857
 C          0.1400500965       -0.8694617008       -0.3362005115
 C          1.1735968859        0.2012041380       -0.4590246980
 C          2.1337160444        0.3883453427        0.4233338878
 H         -1.3281749433        1.4819499132       -0.2705312535
 H         -2.6999289441        0.8776186797        0.4456383312
 H         -2.2406103721        0.3335193122       -1.0552782956
 H         -1.7230466983       -1.3243936716        0.6777221804
 H         -0.7425421463       -0.1248968494        1.4916736222
 H         -0.1949061399       -1.1742718635       -1.3347516173
 H          0.6085755665       -1.7646749006        0.0914646595
 H          1.1123349630        0.8634909205       -1.3100134716
 H          2.2329865828       -0.2454360846        1.2833671214
 H          2.8656306269        1.1660096418        0.3081949908
  15
  -16.106722430000001        6.0251935361151893E-002 !mtd2
 N         -1.8835379844        0.6261512026       -0.1336928317
 C         -1.0728304096       -0.4571123754        0.5001522694
 C          0.1400173083       -0.8702480738       -0.3356885698
 C          1.1736393958        0.2002190078       -0.4595819344
 C          2.1326721103        0.3894041371        0.4235172851
 H         -2.6992753875        0.8782940800        0.4448197473
 H         -2.2394461610        0.3340267214       -1.0557315602
 H         -1.3269308005        1.4822714998       -0.2705101876
 H         -1.7235138933       -1.3238604523        0.6780348246
 H         -0.7425020782       -0.1246621121        1.4918076002
 H         -0.1950246744       -1.1759782071       -1.3339324414
 H          0.6084826940       -1.7650995800        0.0928026738
 H          1.1133810204        0.8606093572       -1.3121223879
 H          2.2308591238       -0.2425080876        1.2850491878
 H          2.8646955710        1.1668469644        0.3075872795
  15
  -16.106717300000000        5.9925741526881481E-002 !mtd1
 N         -1.8840099955        0.6257736849       -0.1337904011
 C         -1.0723714072       -0.4565081399        0.5005290708
 C          0.1399506642       -0.8700825460       -0.3358802410
 C          1.1740477742        0.1999115729       -0.4599445553
 C          2.1324684471        0.3893613797        0.4237584803
 H         -2.2415830015        0.3320102812       -1.0545426303
 H         -1.3273788197        1.4814720324       -0.2731858078
 H         -2.6987228174        0.8792102901        0.4457718926
 H         -1.7226192470       -1.3232805026        0.6798767200
 H         -0.7413579114       -0.1229493493        1.4915816808
 H         -0.1956871441       -1.1754197238       -1.3340393223
 H          0.6081835007       -1.7652133030        0.0922763017
 H          1.1146735201        0.8596911336       -1.3130154593
 H          2.2298621381       -0.2418438685        1.2858967427
 H          2.8647994566        1.1665095585        0.3077813733
  15
  -16.106708780000002        5.9387890054386223E-002 !mtd4
 N         -1.8836307594        0.6345081799       -0.0645700178
 C         -1.0590812765       -0.5620728624       -0.4121292285
 C          0.1278413337       -0.7707894454        0.5301805710
 C          1.1622403642        0.3019307797        0.4357416150
 C          2.1417823347        0.2903518804       -0.4450118890
 H         -2.2683366008        0.5576981111        0.8883392740
 H         -2.6805826955        0.7472401216       -0.7095941959
 H         -1.3275539193        1.5007326434       -0.1081337140
 H         -0.6993069947       -0.4627528773       -1.4435029761
 H         -1.7075971524       -1.4484422732       -0.4069484831
 H          0.6042670655       -1.7385966154        0.3309168229
 H         -0.2367285056       -0.8412566794        1.5620865627
 H          1.0852377857        1.1358472433        1.1178318194
 H          2.2571759593       -0.5178147873       -1.1412398063
 H          2.8739680427        1.0750209012       -0.4887597141
  15
  -16.106704980000000        5.9149562505851065E-002 !mtd2
 N         -1.8833654941        0.6346015847       -0.0648060532
 C         -1.0588054561       -0.5620045941       -0.4122068658
 C          0.1277767487       -0.7709055871        0.5305100596
 C          1.1624298427        0.3015755917        0.4362788498
 C          2.1410607073        0.2906297313       -0.4454890905
 H         -1.3273941766        1.5007555221       -0.1088743889
 H         -2.2677358728        0.5580431677        0.8883767910
 H         -2.6805374950        0.7469788987       -0.7096046674
 H         -0.6986326998       -0.4626410928       -1.4434347590
 H         -1.7073753671       -1.4483367933       -0.4073618435
 H          0.6040628075       -1.7388400048        0.3315269409
 H         -0.2371896218       -0.8412246187        1.5622844023
 H          1.0865024109        1.1347105618        1.1194417716
 H          2.2555290371       -0.5166992270       -1.1428304428
 H          2.8734518732        1.0751234501       -0.4889647353
  15
  -16.106697489999998        5.8682603185109733E-002 !mtd3
 N         -1.8981514039        0.6459293750       -0.2728182171
 C         -1.2673691419       -0.5707591280        0.3231036854
 C          0.1710508974       -0.7958835355       -0.1487753048
 C          1.1342095952        0.2353428774        0.3340783765
 C          2.3495106075        0.3749306652       -0.1551716714
 H         -1.9369585809        0.5788889238       -1.3003426424
 H         -1.3714291573        1.4995368751       -0.0375683432
 H         -2.8644270774        0.7767355834        0.0634608866
 H         -1.8876347380       -1.4426551207        0.0752748436
 H         -1.2910966722       -0.4929587589        1.4171263768
 H          0.1899041463       -0.8183450872       -1.2439231046
 H          0.5244296989       -1.7833560555        0.1742098088
 H          0.8264289770        0.8603531110        1.1585025500
 H          2.7045719660       -0.2497649651       -0.9522529932
 H          3.0343316373        1.1086828017        0.2273920776
  15
  -16.106677600000001        5.7460388760537433E-002 !mtd4
 N         -1.8997537511        0.6451713784       -0.2717423612
 C         -1.2669398435       -0.5708503382        0.3234236941
 C          0.1710375189       -0.7944386954       -0.1504966474
 C          1.1341239157        0.2368024690        0.3324374722
 C          2.3511254662        0.3730958416       -0.1534948121
 H         -2.8655491463        0.7752234359        0.0658904127
 H         -1.9398602333        0.5778167952       -1.2992953889
 H         -1.3734860548        1.4992870026       -0.0374088646
 H         -1.8866779773       -1.4433739996        0.0764735124
 H         -1.2892845078       -0.4931184011        1.4174811423
 H          0.1885889018       -0.8154638272       -1.2456972315
 H          0.5254409709       -1.7820851595        0.1708205302
 H          0.8246334288        0.8650147932        1.1537761827
 H          2.7075944866       -0.2543565062       -0.9477737888
 H          3.0358085456        1.1070475607        0.2289329006
  15
  -16.106671160000001        5.7070140390089022E-002 !mtd3
 N         -1.8999331924        0.6451564874       -0.2709899757
 C         -1.2669281186       -0.5712785480        0.3231285435
 C          0.1710894561       -0.7941692478       -0.1509841097
 C          1.1336748740        0.2378507256        0.3312736737
 C          2.3517328065        0.3722735364       -0.1525147330
 H         -1.3745047660        1.4992283308       -0.0350176141
 H         -2.8662365071        0.7739730942        0.0659912086
 H         -1.9391277888        0.5792743871       -1.2986681588
 H         -1.8864559120       -1.4437167985        0.0753480628
 H         -1.2892663304       -0.4944554840        1.4172516875
 H          0.1884879752       -0.8157214178       -1.2461787444
 H          0.5261232031       -1.7814499709        0.1707688340
 H          0.8226352469        0.8686955029        1.1500003926
 H          2.7095060215       -0.2575731020       -0.9443110705
 H          3.0358958776        1.1071434069        0.2290746155
  15
  -16.106670690000001        5.7041763523088429E-002 !mtd3
 N         -1.9059669268        0.6777485637        0.0913496540
 C         -1.2576309479       -0.6231435634       -0.2560981367
 C          0.1639643093       -0.7539754851        0.2956190723
 C          1.1447097305        0.1773885211       -0.3328220900
 C          2.3466103056        0.4006899103        0.1584713749
 H         -1.3703952314        1.4777673399       -0.2751521208
 H         -1.9791768822        0.7953792421        1.1125392272
 H         -2.8602663148        0.7420769379       -0.2947219703
 H         -1.2448783342       -0.7424925871       -1.3465665009
 H         -1.8871887944       -1.4392988513        0.1232050681
 H          0.5257283980       -1.7818112824        0.1672662478
 H          0.1465977443       -0.5790350962        1.3771920249
 H          0.8624400698        0.6493433134       -1.2615922762
 H          2.6767062080       -0.0753348302        1.0618505631
 H          3.0450000544        1.0568446928       -0.3267514049
  15
  -16.106668039999999        5.6882030146320782E-002 !mtd6
 N         -1.9061886605        0.6775987369        0.0914274343
 C         -1.2575826559       -0.6230999239       -0.2562425565
 C          0.1639678389       -0.7538213576        0.2956202162
 C          1.1446890242        0.1777002563       -0.3326248187
 C          2.3468409347        0.4003761305        0.1583370358
 H         -2.8603790912        0.7418162647       -0.2946733366
 H         -1.3706894441        1.4778896690       -0.2748908320
 H         -1.9795087301        0.7949991481        1.1126232037
 H         -1.2446735436       -0.7421982846       -1.3467365036
 H         -1.8870473878       -1.4394500128        0.1227971522
 H          0.5258543799       -1.7816061452        0.1672062720
 H          0.1464706686       -0.5789831796        1.3772077394
 H          0.8621480695        0.6503781504       -1.2609440718
 H          2.6771509095       -0.0763412840        1.0612728149
 H          3.0452033318        1.0566842854       -0.3267170421
  15
  -16.106665780000000        5.6746158149304671E-002 !mtd1
 N         -1.9063232319        0.6775120236        0.0914804821
 C         -1.2575460710       -0.6230627868       -0.2563333169
 C          0.1639683832       -0.7537173957        0.2956438962
 C          1.1447097197        0.1778121327       -0.3325580097
 C          2.3469563061        0.4002329558        0.1582866995
 H         -1.9793241974        0.7949275591        1.1125994707
 H         -2.8607575447        0.7415078240       -0.2943455790
 H         -1.3711307971        1.4778924187       -0.2750578957
 H         -1.2445251070       -0.7419903458       -1.3468440796
 H         -1.8869597346       -1.4395393308        0.1225195029
 H          0.5258966191       -1.7814970564        0.1673081821
 H          0.1463859416       -0.5788346704        1.3772228811
 H          0.8620750038        0.6507513301       -1.2607151450
 H          2.6773697699       -0.0767064026        1.0610669742
 H          3.0453053816        1.0565738530       -0.3267430315
  15
  -16.106524130000000        4.8847082690644424E-002 !mtd2
 N         -1.9107022544        0.6405475163       -0.2638482749
 C         -1.2643205025       -0.5717606299        0.3243710835
 C          0.1713593159       -0.7854693435       -0.1612337093
 C          1.1334675963        0.2474772547        0.3199557410
 C          2.3622858476        0.3605646538       -0.1415416818
 H         -1.9581219206        0.5748490395       -1.2910924604
 H         -1.3896407303        1.4985101296       -0.0319209762
 H         -2.8750716045        0.7623184803        0.0811802183
 H         -1.8801035348       -1.4481092408        0.0810754344
 H         -1.2782779928       -0.4958202381        1.4186952755
 H          0.1814803836       -0.8009851363       -1.2566352045
 H          0.5325797805       -1.7729553045        0.1528395052
 H          0.8107565503        0.9006858544        1.1162950140
 H          2.7303598493       -0.2900774795       -0.9115214514
 H          3.0451735218        1.0979168169        0.2375419981
  15
  -16.106509700000000        4.8106865720692303E-002 !mtd4
 N         -1.9174819931        0.6698664061        0.0951196536
 C         -1.2549775862       -0.6208582935       -0.2635255913
 C          0.1643707755       -0.7461506186        0.2954480886
 C          1.1433244148        0.1950178863       -0.3210158325
 C          2.3590017816        0.3835381874        0.1505230637
 H         -1.9978525068        0.7748404724        1.1170383115
 H         -2.8700894743        0.7297201079       -0.2958666612
 H         -1.3875677926        1.4793914083       -0.2587562044
 H         -1.2344019720       -0.7273940764       -1.3552036822
 H         -1.8796375378       -1.4468891329        0.1022822392
 H          0.5329936027       -1.7708583480        0.1618681017
 H          0.1402302505       -0.5787076437        1.3780932156
 H          0.8454707652        0.7088699858       -1.2222437753
 H          2.7028729737       -0.1318048044        1.0267908379
 H          3.0549501321        1.0496355345       -0.3245499782
  15
  -16.106504439999998        4.7839841692487887E-002 !mtd4
 N         -1.9122102957        0.6398562024       -0.2628919793
 C         -1.2639182670       -0.5717511676        0.3246818711
 C          0.1713405834       -0.7842534596       -0.1627206235
 C          1.1334821117        0.2487055210        0.3183330183
 C          2.3637534319        0.3589944470       -0.1399647392
 H         -2.8759368315        0.7611490645        0.0838069884
 H         -1.9615497604        0.5735686131       -1.2901174584
 H         -1.3912837605        1.4982832727       -0.0324561061
 H         -1.8792296869       -1.4486811233        0.0822821246
 H         -1.2765446029       -0.4957093828        1.4190150753
 H          0.1802987849       -0.7987517830       -1.2581497084
 H          0.5333903065       -1.7718475284        0.1500423660
 H          0.8092840109        0.9050561534        1.1114829434
 H          2.7330827309       -0.2944330151       -0.9069786875
 H          3.0463481126        1.0967783602        0.2388015444
  15
  -16.106503600000000        4.7797336532531341E-002 !mtd2
 N         -1.9179998184        0.6695415009        0.0952881416
 C         -1.2548382323       -0.6206986361       -0.2638935714
 C          0.1643332995       -0.7457630883        0.2955940835
 C          1.1434202414        0.1953691001       -0.3207063211
 C          2.3594474855        0.3830564304        0.1502550503
 H         -1.3882753220        1.4794716994       -0.2576597194
 H         -1.9991374582        0.7736936396        1.1173427121
 H         -2.8703632455        0.7293040850       -0.2962688372
 H         -1.2337543288       -0.7265777076       -1.3556256680
 H         -1.8793272285       -1.4472010758        0.1011397579
 H          0.5330916393       -1.7704633635        0.1623354942
 H          0.1398259797       -0.5781479186        1.3782039928
 H          0.8453317238        0.7100621409       -1.2213717515
 H          2.7037150315       -0.1329696402        1.0259618331
 H          3.0553904164        1.0491817328       -0.3247960319
  15
  -16.104375720000000        5.0291866818643477E-003 !mtd4
 N         -2.3927609513        0.0104310738        0.2725552859
 C         -1.1197896078       -0.1255247543       -0.5002097677
 C          0.1261046189        0.0935469295        0.3568517880
 C          1.4093058344       -0.0425179993       -0.3933088691
 C          2.5926004411        0.0580974847        0.1766065589
 H         -2.4374516322       -0.6735142717        1.0419038178
 H         -3.2191342167       -0.1424476069       -0.3252050494
 H         -2.4801949611        0.9503708632        0.6857742609
 H         -1.1270309496        0.5878593813       -1.3337195489
 H         -1.0828593958       -1.1208306306       -0.9603350163
 H          0.1218342687       -0.6161845826        1.1913446630
 H          0.0826042252        1.0878183580        0.8154241065
 H          1.3528488405       -0.2258901176       -1.4557940013
 H          2.6900859065        0.2440184495        1.2289709988
 H          3.5027495889       -0.0407429189       -0.3852547762
  15
  -16.104371990000001        5.0093752704936986E-003 !mtd6
 N         -2.3933725359        0.0510163499        0.2623991710
 C         -1.1193231958       -0.1627200491       -0.4907444829
 C          0.1260789191        0.0957853496        0.3559800370
 C          1.4103149495       -0.1074808330       -0.3770081126
 C          2.5919504445        0.1048099192        0.1650109491
 H         -3.2194067041       -0.1277941961       -0.3284075630
 H         -2.4648743128        1.0190971106        0.6082572640
 H         -2.4550875836       -0.5764086622        1.0775147127
 H         -1.1094448315        0.4891863188       -1.3731630226
 H         -1.0982974493       -1.1889057125       -0.8782818663
 H          0.1091372879       -0.5555425526        1.2367412447
 H          0.0939970132        1.1193496307        0.7457215882
 H          1.3562652861       -0.4506005619       -1.3992909725
 H          2.6871162590        0.4430176327        1.1789789633
 H          3.5030143807       -0.0508887263       -0.3823007056
  15
  -16.104371380000000        5.0061427678975336E-003 !mtd3
 N         -2.3933930879        0.0503694039        0.2625546198
 C         -1.1193098346       -0.1620864370       -0.4908922211
 C          0.1260870262        0.0958246290        0.3560214166
 C          1.4102797041       -0.1065917728       -0.3772754978
 C          2.5919911996        0.1041369445        0.1651869292
 H         -2.4655445603        1.0181289043        0.6088471220
 H         -2.4545301387       -0.5775004095        1.0773874582
 H         -3.2194393741       -0.1288081757       -0.3282941735
 H         -1.1097118053        0.4907073257       -1.3726570663
 H         -1.0979548199       -1.1878733022       -0.8794630472
 H          0.1092898777       -0.5563288257        1.2361698760
 H          0.0938947243        1.1190076157        0.7467703323
 H          1.3561155048       -0.4472613851       -1.4003659680
 H          2.6872829122        0.4396582666        1.1800285171
 H          3.5029811408       -0.0508229911       -0.3824569457
