  15
        -16.10709119
 N         -1.9975395997        0.5832764110        0.0327972501
 C         -1.1382618602       -0.5618833445       -0.3967133801
 C          0.1481021120       -0.7025373488        0.4211292637
 C          1.1344409988        0.3946922790        0.1880261221
 C          2.3650621940        0.1981041535       -0.2411119963
 H         -2.8684561491        0.6300691308       -0.5176366807
 H         -1.5151701111        1.4861242844       -0.0830364130
 H         -2.2658319971        0.4965505822        1.0240454741
 H         -0.8885715917       -0.4472186644       -1.4588032555
 H         -1.7303712702       -1.4844897364       -0.3283805274
 H          0.6262129833       -1.6642854184        0.1991911595
 H         -0.0993388892       -0.7458593873        1.4884342435
 H          0.8133566117        1.4020994060        0.4023397683
 H          2.7332674447       -0.7869497208       -0.4543712269
 H          3.0510531798        1.0118673442       -0.3859069451
  15
        -16.10672555
 N         -1.8787274403        0.6373667351       -0.0664523616
 C         -1.0599452361       -0.5641138498       -0.4105886817
 C          0.1278276974       -0.7738832996        0.5303566862
 C          1.1610664869        0.3000831619        0.4376887110
 C          2.1377550995        0.2937072091       -0.4462537805
 H         -2.6776070218        0.7496468754       -0.7089971686
 H         -1.3194720485        1.5011859384       -0.1169176296
 H         -2.2600260258        0.5672139108        0.8884357994
 H         -0.7017628435       -0.4702926164       -1.4430357156
 H         -1.7119704630       -1.4478657134       -0.4007068613
 H          0.6049884387       -1.7407951623        0.3285063489
 H         -0.2359369662       -0.8470027769        1.5623719426
 H          1.0855563396        1.1306247653        1.1240803187
 H          2.2519601450       -0.5107803633       -1.1469214040
 H          2.8691115227        1.0792398288       -0.4885223070
  15
        -16.10669749
 N         -1.8981514039        0.6459293750       -0.2728182171
 C         -1.2673691419       -0.5707591280        0.3231036854
 C          0.1710508974       -0.7958835355       -0.1487753048
 C          1.1342095952        0.2353428774        0.3340783765
 C          2.3495106075        0.3749306652       -0.1551716714
 H         -1.9369585809        0.5788889238       -1.3003426424
 H         -1.3714291573        1.4995368751       -0.0375683432
 H         -2.8644270774        0.7767355834        0.0634608866
 H         -1.8876347380       -1.4426551207        0.0752748436
 H         -1.2910966722       -0.4929587589        1.4171263768
 H          0.1899041463       -0.8183450872       -1.2439231046
 H          0.5244296989       -1.7833560555        0.1742098088
 H          0.8264289770        0.8603531110        1.1585025500
 H          2.7045719660       -0.2497649651       -0.9522529932
 H          3.0343316373        1.1086828017        0.2273920776
  15
        -16.10652413
 N         -1.9107022544        0.6405475163       -0.2638482749
 C         -1.2643205025       -0.5717606299        0.3243710835
 C          0.1713593159       -0.7854693435       -0.1612337093
 C          1.1334675963        0.2474772547        0.3199557410
 C          2.3622858476        0.3605646538       -0.1415416818
 H         -1.9581219206        0.5748490395       -1.2910924604
 H         -1.3896407303        1.4985101296       -0.0319209762
 H         -2.8750716045        0.7623184803        0.0811802183
 H         -1.8801035348       -1.4481092408        0.0810754344
 H         -1.2782779928       -0.4958202381        1.4186952755
 H          0.1814803836       -0.8009851363       -1.2566352045
 H          0.5325797805       -1.7729553045        0.1528395052
 H          0.8107565503        0.9006858544        1.1162950140
 H          2.7303598493       -0.2900774795       -0.9115214514
 H          3.0451735218        1.0979168169        0.2375419981
  15
        -16.10437572
 N         -2.3927609513        0.0104310738        0.2725552859
 C         -1.1197896078       -0.1255247543       -0.5002097677
 C          0.1261046189        0.0935469295        0.3568517880
 C          1.4093058344       -0.0425179993       -0.3933088691
 C          2.5926004411        0.0580974847        0.1766065589
 H         -2.4374516322       -0.6735142717        1.0419038178
 H         -3.2191342167       -0.1424476069       -0.3252050494
 H         -2.4801949611        0.9503708632        0.6857742609
 H         -1.1270309496        0.5878593813       -1.3337195489
 H         -1.0828593958       -1.1208306306       -0.9603350163
 H          0.1218342687       -0.6161845826        1.1913446630
 H          0.0826042252        1.0878183580        0.8154241065
 H          1.3528488405       -0.2258901176       -1.4557940013
 H          2.6900859065        0.2440184495        1.2289709988
 H          3.5027495889       -0.0407429189       -0.3852547762
