12
 energy: -15.465612534477 gnorm: 0.000112716024 xtb: 6.5.1 (fef0646)
N            1.00411752952953        0.09661710629927       -0.01784813210702
C            2.48257106001661       -0.00805586811708       -0.05295662168060
C            2.96939306051837       -0.51983096828167       -1.41126504197409
C            2.58650478353955       -1.88845052591678       -1.64801004109557
N            2.25979297251500       -2.97208689428106       -1.81968357317834
H            0.69149782161456        0.44366397591967        0.89776328694763
H            0.57074496788129       -0.82090922358317       -0.18067899673037
H            0.66748476304098        0.74353256538447       -0.74241839412566
H            2.81414260450928       -0.68457821532746        0.73561251112607
H            2.91420513674214        0.97716105439765        0.12375750951752
H            4.05990355133335       -0.47344084944891       -1.44810047708088
H            2.58290174875938        0.09145784295506       -2.23033202961866
