49
 energy: -78.644790683464 gnorm: 0.000218745882 xtb: 6.5.1 (fef0646)
N            3.54398612060208       -0.69261644239246       -0.84674586667394
C            2.75065148997786       -0.19667922085102        0.31197297684805
C            3.58747327483277       -0.35054841059418        1.58679156922489
C            4.83046050512924        0.47118463075480        1.50369545014590
C            5.08606594353391        1.69971619390288        2.02582635305592
C            6.33788607325697        2.22494975799730        1.65573182634690
C            7.06540989390768        1.41238271312224        0.82605494940084
C            8.33923908833157        1.62918812080618        0.24622204790260
C            9.07739345977722        0.77571872755514       -0.54240284869330
C           10.30250046636245        1.30525416518698       -0.96404162101586
C           11.25181360600713        0.49818817140221       -1.78792677707239
C           10.50667652126992        2.59718787468839       -0.49579046142124
C           11.59190289225624        3.51615624176678       -0.70957229858589
C           12.56460936345574        3.40506278731409       -1.69262524367436
C           13.58988809668357        4.33764988595418       -1.85970142960146
C           13.73254796928987        5.46513853784140       -1.06481932943421
C           14.77671580883867        6.44032584225230       -1.22250002942354
C           15.49125594341661        6.80258615428587       -2.34916420604102
C           15.28075041434015        6.28600979792100       -3.73424567675611
C           16.44558459892068        7.80318634444337       -2.06769262038296
C           16.45774238313856        8.18711877491673       -0.76321014570913
S           15.28211732171126        7.36546889781482        0.16718082383267
C           12.76045970984198        5.61362981368088       -0.03983700407114
N           12.66933420718641        6.60596710730253        0.84210596859348
S           11.39217753116866        6.37355139011497        1.77859277458113
N           10.87543998112196        4.99859276804906        1.11117934833031
C           11.69858551380415        4.66301171354016        0.12005187911380
S            9.18899439824231        3.12627938038821        0.50667307130092
S            6.19243595453139       -0.07630265342363        0.52456291815024
H            3.15242505695223       -0.39638165389206       -1.74511140926203
H            3.60773287824449       -1.71612335344258       -0.82701622322846
H            4.52962877328781       -0.31943348746148       -0.72556315430731
H            1.81741134420409       -0.75518069630604        0.38412231307662
H            2.52497003600715        0.85774749884576        0.14799409910731
H            3.83106109241927       -1.40334444177602        1.74305063950400
H            2.99269896648769       -0.01384459166207        2.43559163952834
H            4.39731539129007        2.21988340445871        2.66707990135086
H            6.71275480766859        3.17652105960180        1.98404919242678
H            8.74611150985322       -0.21693574137416       -0.80160087259938
H           10.95997085329939       -0.54920883237707       -1.75850006292326
H           12.26760580037516        0.58524433950398       -1.40792788138658
H           11.23882034212778        0.82088331401422       -2.82919604945264
H           12.53503459019946        2.57904480728248       -2.38104275709817
H           14.31642755454104        4.14593583352492       -2.63097825693147
H           14.23154155098242        6.06163776110676       -3.91499175089293
H           15.86532548461382        5.38096219045017       -3.90350430718973
H           15.60964937267991        7.03176508316226       -4.45441362106156
H           17.09720806261546        8.21835032957357       -2.81583545506635
H           17.08750800121291        8.91805811102973       -0.29622238186458
