17
 energy: -24.275156825979 gnorm: 0.000304979274 xtb: 6.5.1 (fef0646)
N            1.01658631472487        0.07260907307955       -0.05831167433689
C            2.51214022519209        0.06052974131748       -0.01648444541479
C            3.05866716947350        0.39845516426005       -1.39474213639717
C            4.58652946213404        0.40792975691627       -1.43754731627869
C            5.02866881847909        0.75799844763737       -2.86688019960540
O            6.33939644711002        0.80560223393980       -3.06930113353952
O            4.23786242502043        0.97065956677330       -3.73608183216068
H            0.60674539841888       -0.15183520778260        0.85725197087578
H            0.68358417919429       -0.61324780826074       -0.75008258580093
H            0.68553786649958        1.00170252669643       -0.35331111559869
H            2.84168897759780       -0.93075563320141        0.29911650503241
H            2.84375282760872        0.79198986139884        0.72233476310599
H            2.71017284699976        1.38306335862603       -1.71229345059957
H            2.70894745176447       -0.32668952005785       -2.13203968955608
H            4.99071040213189       -0.57082978593435       -1.17053482973512
H            4.99178752501682        1.15207812811239       -0.74864154817014
H            6.88454166263370        0.61564009647940       -2.29416128182053
