  34
        -51.42468214
 N          4.1740282422       -0.4516096370        0.8040523813
 C          4.1760897673       -1.0342008186       -0.5680826192
 C          2.9456491448       -0.6183170005       -1.3714252870
 C          1.6578635962       -0.9770593661       -0.6933158465
 C          1.0972724723       -2.2364589231       -0.8525862188
 C         -0.0718283719       -2.5732359162       -0.2078573726
 C          1.0276564769       -0.0691456038        0.1455988997
 C         -0.1386519130       -0.4024069252        0.7950700843
 C         -0.7125391066       -1.6576067364        0.6217783550
 N         -1.9100271453       -1.9907227504        1.2558118718
 N         -2.9434921412       -1.2972221860        1.1962671979
 C         -3.0814038809       -0.1762456461        0.3760958261
 C         -2.8289850666       -0.2581987898       -0.9904940755
 C         -2.9380693483        0.8562546057       -1.7919599485
 C         -3.3061124453        2.0697388605       -1.2437437924
 C         -3.5664737194        2.1645389926        0.1096517769
 C         -3.4566186371        1.0519650425        0.9141450289
 Cl         3.0007801988        2.8679784910        0.4898631637
 H          5.0599597538       -0.6153209517        1.3016895071
 H          3.4139932393       -0.8537459279        1.3690462989
 H          4.0085886446        0.5679466129        0.7606923286
 H          4.2213882050       -2.1271498565       -0.4969225048
 H          5.0900244185       -0.7330473562       -1.0943942793
 H          2.9664039700       -1.0692619513       -2.3702925700
 H          2.9671397452        0.4635191922       -1.5402993338
 H          1.5882223346       -2.9522471330       -1.4899467990
 H         -0.5093360267       -3.5473626214       -0.3403825949
 H          1.4672037626        0.9038957969        0.2884676917
 H         -0.6269614387        0.3067319933        1.4401925302
 H         -2.5371276428       -1.2062753066       -1.4074505326
 H         -2.7338994608        0.7819236878       -2.8477191272
 H         -3.3904354850        2.9417659261       -1.8715521563
 H         -3.8543305653        3.1111326310        0.5373134871
 H         -3.6515826723        1.1178618252        1.9703640011
