  42
        -62.97926343
 N          6.4246927181       -0.1929310588        0.9540518025
 C          6.1410928258        0.5888788755       -0.2778812625
 C          4.7142688218        1.1104460853       -0.2656177496
 O          3.7888701187        0.0329254140       -0.2012278364
 C          2.4864599257        0.3923107275       -0.1583408601
 C          2.0029996914        1.7199368794       -0.1392027198
 C          0.6685341698        1.9904814086       -0.0868172971
 C         -0.3093039431        0.9755494681       -0.0503653090
 C          0.1237139320       -0.3801874093       -0.0730271310
 C         -0.8102867291       -1.4517251295       -0.0441348664
 C         -0.3236832436       -2.7589727219       -0.0753005502
 C          1.0275801829       -3.0251191336       -0.1353294006
 C          1.9363869018       -1.9938304677       -0.1631884674
 C          1.5112698815       -0.6722154963       -0.1293567937
 C         -1.7192844436        1.2709484791        0.0046653230
 C         -2.2066947014        2.5793890247        0.0284094599
 C         -3.5620402170        2.8501121060        0.0797536180
 C         -4.4749560115        1.8314390950        0.1095040943
 C         -4.0496373948        0.4907911991        0.0885584932
 C         -4.9772948672       -0.5661447327        0.1188358460
 C         -4.5497212260       -1.8645060387        0.0977546121
 C         -3.1977687561       -2.1589208692        0.0457765478
 C         -2.2315935823       -1.1565768730        0.0131975116
 C         -2.6601804579        0.1991001688        0.0355429016
 H          7.3541963823       -0.6284982601        0.9290616574
 H          5.7189000518       -0.9306567368        1.0568417922
 H          6.3687511267        0.4062753347        1.7850328469
 H          6.2787523422       -0.0544647329       -1.1542069054
 H          6.8601977278        1.4100965835       -0.3772863350
 H          4.4941316005        1.6936438212       -1.1676364481
 H          4.5511652503        1.7444811840        0.6125138514
 H          2.7003094553        2.5371183771       -0.1657878043
 H          0.3602400271        3.0196050552       -0.0734287011
 H         -1.0076467179       -3.5873289112       -0.0550069269
 H          1.3740098678       -4.0453660903       -0.1616817109
 H          2.9926517563       -2.1928690775       -0.2183991984
 H         -1.5227884304        3.4074975584        0.0066880782
 H         -3.9019577423        3.8729543800        0.0963236806
 H         -5.5287525511        2.0478204622        0.1492175890
 H         -6.0293206805       -0.3412806220        0.1589055544
 H         -5.2703780165       -2.6658178322        0.1215748902
 H         -2.9009639294       -3.1913335032        0.0307610103
  42
        -62.97915321
 N          6.3791809787       -0.1583343913        1.0573324633
 C          6.1444706031        0.5891267323       -0.2059035981
 C          4.7169749771        1.1053900828       -0.2667463258
 O          3.7912780157        0.0269965618       -0.2237905158
 C          2.4884183294        0.3864004349       -0.1975268975
 C          2.0054474146        1.7144609814       -0.1942154851
 C          0.6715053722        1.9863616293       -0.1372586126
 C         -0.3063989176        0.9725023165       -0.0807269596
 C          0.1252494109       -0.3836879107       -0.1010570713
 C         -0.8096939815       -1.4540793408       -0.0607627753
 C         -0.3248478874       -2.7619146014       -0.0941031140
 C          1.0255529007       -3.0296493274       -0.1653693699
 C          1.9353964541       -1.9994622569       -0.2012386034
 C          1.5121796301       -0.6772636287       -0.1660214256
 C         -1.7151292236        1.2696326228       -0.0069350012
 C         -2.2003756792        2.5787095631        0.0244107113
 C         -3.5543903979        2.8511876715        0.0970814437
 C         -4.4680112857        1.8336730812        0.1412599021
 C         -4.0447991911        0.4924808559        0.1134785354
 C         -4.9731403044       -0.5633215966        0.1583755351
 C         -4.5475430345       -1.8622034498        0.1310061034
 C         -3.1968571162       -2.1583501913        0.0591091280
 C         -2.2299745213       -1.1572201489        0.0123748605
 C         -2.6566779861        0.1989672652        0.0391337179
 H          7.3140524241       -0.5820197128        1.0866397547
 H          5.6786377748       -0.9026172102        1.1467603520
 H          6.2777410828        0.4606277669        1.8692465569
 H          6.3212684648       -0.0759659553       -1.0585768768
 H          6.8641622728        1.4109699779       -0.2958318014
 H          4.5342976385        1.6718102266       -1.1876723567
 H          4.5157699906        1.7544068829        0.5922679627
 H          2.7024595322        2.5310855663       -0.2389905480
 H          0.3637053047        3.0157209622       -0.1368150476
 H         -1.0095284050       -3.5894685258       -0.0661858492
 H          1.3706000471       -4.0503310721       -0.1931644975
 H          2.9909654526       -2.1999291083       -0.2641643424
 H         -1.5157309499        3.4059307153       -0.0059228917
 H         -3.8926161928        3.8744673834        0.1197563853
 H         -5.5207342485        2.0514611814        0.1980477705
 H         -6.0241300257       -0.3371464219        0.2150312965
 H         -5.2687420199       -2.6626127887        0.1659606917
 H         -2.9015882060       -3.1911383896        0.0404345314
  42
        -62.97906257
 N          5.6706170094        0.3106835904        1.5767620151
 C          5.2200218962        1.3766072113        0.6444352201
 C          4.8464827141        0.7857823834       -0.7057624370
 O          3.8531355301       -0.2271482108       -0.5884329745
 C          2.5756810844        0.1965698942       -0.4643346334
 C          2.1462265264        1.5421642121       -0.4284957651
 C          0.8306046455        1.8662920356       -0.2840906555
 C         -0.1815678556        0.8920844448       -0.1670474579
 C          0.1941366497       -0.4798562247       -0.2131091849
 C         -0.7778893545       -1.5129117474       -0.1165345240
 C         -0.3470868096       -2.8386648284       -0.1756531520
 C          0.9852009481       -3.1588457593       -0.3272857321
 C          1.9305276261       -2.1648926582       -0.4215927216
 C          1.5616907798       -0.8271560946       -0.3635263530
 C         -1.5707320924        1.2442682282       -0.0107659633
 C         -2.0013500285        2.5713201322        0.0493828900
 C         -3.3375320917        2.8966369043        0.1965149562
 C         -4.2869741188        1.9157662457        0.2885230068
 C         -3.9192262293        0.5590164741        0.2363290225
 C         -4.8849092356       -0.4595035224        0.3294835172
 C         -4.5130705177       -1.7740605602        0.2775202010
 C         -3.1809164653       -2.1229392238        0.1330628668
 C         -2.1791100331       -1.1605700916        0.0355921805
 C         -2.5498320303        0.2113231637        0.0867034314
 H          6.5166612598       -0.1480090357        1.2214275934
 H          4.9399870957       -0.4056594118        1.6525370886
 H          5.8696058150        0.6775316065        2.5150814317
 H          6.0022372115        2.1368313858        0.5351834102
 H          4.3552261458        1.8864915123        1.0806252021
 H          5.7174160771        0.2916218879       -1.1514132136
 H          4.5148529200        1.5351639938       -1.4333668408
 H          2.8681379468        2.3324429857       -0.5201827139
 H          0.5644627950        2.9070062310       -0.2634675244
 H         -1.0605385468       -3.6389219145       -0.1049381914
 H          1.2879123118       -4.1922170858       -0.3737152154
 H          2.9720238043       -2.4057167565       -0.5496973554
 H         -1.2871924397        3.3710389366       -0.0170382473
 H         -3.6333332758        3.9323587591        0.2390225162
 H         -5.3256693752        2.1746926459        0.4023395351
 H         -5.9216708235       -0.1923034531        0.4420713594
 H         -5.2625416228       -2.5455324491        0.3493449321
 H         -2.9282371807       -3.1664943378        0.0962027321
  42
        -62.97897511
 N          5.5860346496        0.3505160608       -1.6895171192
 C          5.1922658946        1.3946210763       -0.7082554512
 C          4.8628650301        0.7686328039        0.6376894521
 O          3.8656688337       -0.2410601352        0.5267985129
 C          2.5862989392        0.1854519796        0.4384586256
 C          2.1562542494        1.5312811468        0.4473530805
 C          0.8387120526        1.8586633728        0.3304202004
 C         -0.1748260768        0.8875384557        0.2001945493
 C          0.2012814142       -0.4850629146        0.2060785326
 C         -0.7720279750       -1.5155863777        0.0964618662
 C         -0.3404230724       -2.8422897646        0.1145498215
 C          0.9939349976       -3.1658519816        0.2382942908
 C          1.9405412593       -2.1743586541        0.3448451869
 C          1.5708204677       -0.8357104639        0.3276399900
 C         -1.5657147812        1.2432695269        0.0696047757
 C         -1.9966880354        2.5713798717        0.0466994312
 C         -3.3344512768        2.9000711124       -0.0765380060
 C         -4.2851790520        1.9216360212       -0.1804581876
 C         -3.9171879955        0.5640276910       -0.1651085715
 C         -4.8842828189       -0.4520207457       -0.2698479060
 C         -4.5122393760       -1.7674478634       -0.2530566068
 C         -3.1784554745       -2.1196460614       -0.1339870566
 C         -2.1751429828       -1.1598102799       -0.0274403544
 C         -2.5461418374        0.2129070977       -0.0409081926
 H          6.4373235167       -0.1326376961       -1.3824439749
 H          5.7536412996        0.7425512316       -2.6240702307
 H          4.8405346260       -0.3511111214       -1.7567389668
 H          4.3200253057        1.9319649854       -1.0941509448
 H          5.9911768367        2.1383243229       -0.6080040070
 H          4.5560242067        1.4984878543        1.3950692300
 H          5.7475705283        0.2623755106        1.0412342360
 H          2.8791641260        2.3188482228        0.5533200397
 H          0.5721400987        2.8993933085        0.3432439377
 H         -1.0547945827       -3.6406660576        0.0327979614
 H          1.2973272139       -4.1999579112        0.2528829815
 H          2.9838469482       -2.4180776429        0.4509991771
 H         -1.2815208761        3.3692810760        0.1232695848
 H         -3.6304470954        3.9365125323       -0.0908150799
 H         -5.3251070029        2.1831428128       -0.2754968718
 H         -5.9222883264       -0.1822410888       -0.3630715653
 H         -5.2628492949       -2.5370186355       -0.3328762134
 H         -2.9256968995       -3.1637842789       -0.1241669718
  42
        -62.97481271
 N          6.3141605743        2.0064285704       -0.8623222411
 C          5.1549889534        1.0673880015       -0.8932333955
 C          4.8683473859        0.4401233694        0.4631088792
 O          3.8174264783       -0.5243376108        0.4105964319
 C          2.5569371604       -0.0414048164        0.3486715508
 C          2.1859542653        1.3208530408        0.3961219428
 C          0.8814610360        1.7067774155        0.3187580261
 C         -0.1755574601        0.7829942709        0.1883448596
 C          0.1421385828       -0.6035680023        0.1415874832
 C         -0.8751166157       -1.5884132621        0.0133240133
 C         -0.4989438077       -2.9314955213       -0.0252754098
 C          0.8230393038       -3.3139540140        0.0568170169
 C          1.8121934933       -2.3668873382        0.1796520635
 C          1.4975227558       -1.0148997062        0.2240404975
 C         -1.5529866019        1.1998802413        0.1037796053
 C         -1.9289623225        2.5441691530        0.1438743359
 C         -3.2540032804        2.9318124693        0.0611903886
 C         -4.2462483779        1.9981263158       -0.0640139313
 C         -3.9346574386        0.6271691950       -0.1108314955
 C         -4.9446120658       -0.3433281088       -0.2403103109
 C         -4.6272367886       -1.6723595633       -0.2848644572
 C         -3.3075797111       -2.0834062864       -0.2028933459
 C         -2.2638301703       -1.1706472681       -0.0735760266
 C         -2.5774386289        0.2155966572       -0.0263489508
 H          6.4860136530        2.4213679166       -1.7842114502
 H          7.1674596352        1.5185090931       -0.5706185147
 H          6.1467577339        2.7689015546       -0.1975043956
 H          5.3426603666        0.2704303515       -1.6214519736
 H          4.2648933927        1.5895184327       -1.2572365477
 H          4.6380707960        1.1847576946        1.2314262508
 H          5.7523368301       -0.1000585699        0.8213606277
 H          2.9451886031        2.0731698402        0.5029197407
 H          0.6604432989        2.7573380270        0.3616075672
 H         -1.2474687021       -3.6963337517       -0.1208079142
 H          1.0833332699       -4.3592931291        0.0241732186
 H          2.8476329828       -2.6555592638        0.2436736012
 H         -1.1802771808        3.3083962075        0.2407628853
 H         -3.5069640842        3.9790931964        0.0956251377
 H         -5.2759399400        2.3055971836       -0.1282613550
 H         -5.9718597004       -0.0277823235       -0.3045682713
 H         -5.4101503718       -2.4066140598       -0.3846557590
 H         -3.0982091870       -3.1364394789       -0.2418100335
  42
        -62.97450791
 N          7.1727625962        1.3231509709       -0.0628385102
 C          6.1282207674        0.2575744780       -0.0503253971
 C          4.7174380330        0.8208257990        0.0105737577
 O          3.7428907740       -0.2190460012        0.0059846080
 C          2.4565104601        0.1926261748        0.0261453736
 C          2.0258722698        1.5375198767        0.0705278724
 C          0.7019052235        1.8597890681        0.0805538940
 C         -0.3156557789        0.8843584588        0.0469408017
 C          0.0643087945       -0.4867319449        0.0038774241
 C         -0.9108493812       -1.5205726511       -0.0336551350
 C         -0.4742758426       -2.8453165719       -0.0705618497
 C          0.8670736034       -3.1638589936       -0.0737207068
 C          1.8157683617       -2.1692004769       -0.0412119872
 C          1.4403328386       -0.8326834940       -0.0027705974
 C         -1.7141299127        1.2343810491        0.0541795423
 C         -2.1507199990        2.5600501279        0.1004511336
 C         -3.4954172406        2.8835010368        0.1032558771
 C         -4.4477595484        1.9021084290        0.0598292653
 C         -4.0745457416        0.5466674397        0.0128911554
 C         -5.0431598481       -0.4722841211       -0.0330799627
 C         -4.6660727943       -1.7855905947       -0.0784243611
 C         -3.3256884989       -2.1327763839       -0.0787444642
 C         -2.3206547289       -1.1699036855       -0.0339616542
 C         -2.6965451993        0.2008129298        0.0113164995
 H          7.1095295004        1.9017372568        0.7809049525
 H          7.0536908941        1.9377566773       -0.8748982643
 H          8.1161736636        0.9234136173       -0.1032867044
 H          6.2857155697       -0.4120696644        0.8024205988
 H          6.2250939014       -0.3721176044       -0.9415084237
 H          4.5282158221        1.4680926946       -0.8519853422
 H          4.5796440580        1.4124985424        0.9218145380
 H          2.7557323857        2.3257265532        0.0988820265
 H          0.4336952503        2.8996123264        0.1142748992
 H         -1.1901198995       -3.6461349398       -0.0964274095
 H          1.1743382105       -4.1965171669       -0.1024323658
 H          2.8656077192       -2.4079797399       -0.0450289583
 H         -1.4347326232        3.3600997594        0.1358300229
 H         -3.7957360655        3.9181452283        0.1396495356
 H         -5.4930413547        2.1594977692        0.0613013802
 H         -6.0863542775       -0.2064255079       -0.0328608158
 H         -5.4177786584       -2.5573830967       -0.1144149737
 H         -3.0689479039       -3.1753202704       -0.1160194981
  42
        -62.97395164
 N          4.6159246924        1.3165714435       -1.7398914764
 C          5.5995679519        0.8696554067       -0.7195412472
 C          4.9495380201        0.6166192394        0.6320792657
 O          3.8959014743       -0.3413928451        0.5360215357
 C          2.6273048862        0.1191024522        0.4422691551
 C          2.2123441313        1.4697882414        0.4508939226
 C          0.8975062850        1.8121109169        0.3440753226
 C         -0.1286151997        0.8539163874        0.2187279757
 C          0.2328926843       -0.5221747232        0.2045358965
 C         -0.7508462724       -1.5408275852        0.0785597043
 C         -0.3325896241       -2.8719300671        0.0742934313
 C          0.9989917092       -3.2106721028        0.1870140795
 C          1.9556582792       -2.2304163500        0.3068631466
 C          1.5988629836       -0.8881664931        0.3181406391
 C         -1.5167801119        1.2259002759        0.1056410902
 C         -1.9352835272        2.5581243113        0.1186557125
 C         -3.2701395623        2.9023944581        0.0068747350
 C         -4.2301483959        1.9359754028       -0.1213746120
 C         -3.8751024510        0.5749579479       -0.1404884897
 C         -4.8516900639       -0.4288731010       -0.2717667526
 C         -4.4922428720       -1.7478151235       -0.2874668562
 C         -3.1622018939       -2.1156982341       -0.1739706575
 C         -2.1499994381       -1.1685168744       -0.0415808719
 C         -2.5075056633        0.2077696463       -0.0249191735
 H          5.0458727218        1.4139407017       -2.6682341914
 H          4.2062010900        2.2237328429       -1.4845011094
 H          3.8528631531        0.6326122100       -1.8098609896
 H          6.4084638018        1.6042756699       -0.6315083567
 H          6.0650226667       -0.0599876078       -1.0662050916
 H          4.5871508564        1.5353504817        1.0993137816
 H          5.6747436230        0.1905846477        1.3372840162
 H          2.9405246667        2.2536618740        0.5398639606
 H          0.6433981229        2.8559894387        0.3558538239
 H         -1.0552497008       -3.6617701320       -0.0170484799
 H          1.2924377510       -4.2477256576        0.1810052874
 H          2.9982518531       -2.4849198332        0.3954811806
 H         -1.2129137514        3.3469383784        0.2183718422
 H         -3.5564726729        3.9415524240        0.0208526271
 H         -5.2676008684        2.2097647545       -0.2086954970
 H         -5.8868890066       -0.1469559745       -0.3602922523
 H         -5.2499144637       -2.5079077236       -0.3887006589
 H         -2.9193509381       -3.1621014702       -0.1908771795
  42
        -62.97385690
 N          4.6785571707        1.1961275480        1.6891552969
 C          5.6272737296        0.8319927936        0.6050668969
 C          4.9282349864        0.6629387252       -0.7351905322
 O          3.8787321868       -0.3016114491       -0.6611339634
 C          2.6137174483        0.1498297028       -0.4991302538
 C          2.1993880399        1.4978588159       -0.4106930328
 C          0.8882125032        1.8313744056       -0.2465727407
 C         -0.1347672036        0.8661225857       -0.1545502707
 C          0.2264329634       -0.5077576200       -0.2350791650
 C         -0.7542788929       -1.5332412128       -0.1462359151
 C         -0.3361678610       -2.8617482618       -0.2295490121
 C          0.9919537629       -3.1915042283       -0.3964370321
 C          1.9452798777       -2.2046757555       -0.4849584597
 C          1.5888571687       -0.8645322802       -0.4066168354
 C         -1.5194772752        1.2289026392        0.0161842366
 C         -1.9372775111        2.5588570715        0.0983219854
 C         -3.2691954784        2.8942458054        0.2606607958
 C         -4.2270088558        1.9209509976        0.3463094809
 C         -3.8724434360        0.5617827197        0.2705124077
 C         -4.8468122160       -0.4491152339        0.3561288190
 C         -4.4878161473       -1.7660776453        0.2800671296
 C         -3.1603938501       -2.1249803729        0.1176712123
 C         -2.1504776156       -1.1705088263        0.0263789859
 C         -2.5076714798        0.2037610108        0.1038849490
 H          3.9257370795        0.4994406502        1.7395424514
 H          4.2500434632        2.1130696145        1.5115794462
 H          5.1416842763        1.2357003080        2.6058182187
 H          6.1147473991       -0.1132224320        0.8703383122
 H          6.4249925772        1.5806019925        0.5372084551
 H          5.6270224220        0.2842743097       -1.4918311293
 H          4.5487970393        1.6086249997       -1.1300329783
 H          2.9252730516        2.2867701072       -0.4683934529
 H          0.6346712351        2.8736592236       -0.1851001322
 H         -1.0560842414       -3.6566130887       -0.1637797590
 H          1.2851635609       -4.2267808076       -0.4584150140
 H          2.9847193198       -2.4525126528       -0.6182992529
 H         -1.2166593419        3.3529559484        0.0343398988
 H         -3.5549640938        3.9319586448        0.3198721192
 H         -5.2623115960        2.1878498991        0.4722030732
 H         -5.8800640625       -0.1742290645        0.4818360243
 H         -5.2438199193       -2.5316576154        0.3464983046
 H         -2.9180696558       -3.1701517427        0.0616154486
