  42
        -62.86451028
 N         -5.5410158401       -0.1870007717        1.6428532323
 C         -5.2196542472       -1.2751549849        0.6845918033
 C         -4.8759130377       -0.6903686711       -0.6758646113
 O         -3.8593601061        0.3005865861       -0.5780237600
 C         -2.5872821469       -0.1484382438       -0.4712787662
 C         -2.1793306558       -1.5028369138       -0.4872665567
 C         -0.8678150495       -1.8519498800       -0.3673478079
 C          0.1620426362       -0.8959359066       -0.2203483303
 C         -0.1942425393        0.4805228805       -0.2034209493
 C          0.7928663015        1.4937291460       -0.0623620548
 C          0.3812181213        2.8292169781       -0.0655592784
 C         -0.9459392729        3.1751288584       -0.1998267783
 C         -1.9073527137        2.1983911112       -0.3318050747
 C         -1.5578396774        0.8540920226       -0.3337950869
 C          1.5438034485       -1.2730907386       -0.0934556679
 C          1.9582043495       -2.6095694347       -0.1107653960
 C          3.2900257965       -2.9591591838        0.0149285508
 C          4.2523732069       -1.9950889320        0.1625786568
 C          3.9017939568       -0.6341117288        0.1869283908
 C          4.8806511553        0.3638349583        0.3382281346
 C          4.5271971843        1.6859418533        0.3591795670
 C          3.2008173322        2.0604117168        0.2301888466
 C          2.1845718066        1.1158777376        0.0764822706
 C          2.5372765233       -0.2607146399        0.0562850542
 H         -4.7599070948        0.4842680337        1.6818042634
 H         -5.7154740792       -0.5399626203        2.5977181127
 H         -6.3758069493        0.3363252674        1.3388262895
 H         -6.0595675040       -1.9767449948        0.6115532080
 H         -4.3713753023       -1.8500138769        1.0710260238
 H         -5.7494700804       -0.1739232685       -1.0918876175
 H         -4.5832334497       -1.4431762505       -1.4163481155
 H         -2.9158680644       -2.2769605042       -0.6046972586
 H         -0.6162111827       -2.8972732703       -0.3890412202
 H          1.1081144436        3.6159033693        0.0340556853
 H         -1.2338805046        4.2146096440       -0.2038051844
 H         -2.9464143368        2.4603273731       -0.4435576667
 H          1.2331345329       -3.3954464804       -0.2256446181
 H          3.5741234421       -3.9996340229       -0.0035843132
 H          5.2888713840       -2.2732873280        0.2605941760
 H          5.9144300133        0.0763721101        0.4379699572
 H          5.2879171158        2.4420437987        0.4766295717
 H          2.9613664111        3.1084240169        0.2519513047
