43
 energy: -67.852551275567 gnorm: 0.000335687710 xtb: 6.5.1 (fef0646)
N            1.04364825088030        2.08860076632882       -0.13203074423430
C            2.07481605529093        1.66276117778608       -1.07281329866959
C            3.39958283674727        1.43688774282875       -0.33087095108606
O            4.42174924388710        1.02653131080097       -1.20503064800592
C            5.01442120596497        1.93487974558166       -2.03210891581695
C            4.81534429257496        3.29432309435626       -2.00298370600120
C            5.50434676305405        4.12871005449357       -2.88104661406745
C            6.39406092576225        3.64689966104937       -3.82218044143635
C            6.59679756186302        2.24156781835394       -3.89431627284390
C            7.46723949298456        1.66978828612251       -4.86149552553935
C            7.66696777355167        0.29943031946058       -4.85095782947987
C            7.01628404018104       -0.52955836170308       -3.94028250756180
C            6.14597492739713       -0.00128400419769       -3.02643685681178
C            5.92157750462179        1.38673209841104       -2.98506554256867
C            7.12143554661002        4.52405200595374       -4.72880052476479
C            7.03129194537476        5.90393936466929       -4.65457862751227
C            7.71219641785103        6.73392869644283       -5.54422686896125
C            8.48949373493604        6.19584123802230       -6.53169787334428
C            8.62537207672487        4.79845934521527       -6.64564820229962
C            9.42228248000828        4.23682960037466       -7.66221322941770
C            9.54727805654561        2.87976534543887       -7.76877233891785
C            8.90513642704413        2.04088658307730       -6.85854762533736
C            8.12167353749634        2.54039053675143       -5.83190830149292
C            7.95161792688329        3.94764816736210       -5.72813674386080
Cl           0.71447895702014        0.11040722686161        2.04056444421210
H            0.14926025537143        2.18994879451909       -0.59834829258286
H            1.28704782471298        2.97601810446866        0.29597691190412
H            0.86098992973312        1.00888107908412        1.03751617394908
H            2.23274077197237        2.38593000873621       -1.88572952710297
H            1.75850068498604        0.71759423687652       -1.51915169477514
H            3.27998817024343        0.61732534398579        0.38150672745413
H            3.68673048483342        2.33784411548869        0.22606721419555
H            4.13845985842342        3.75137777891810       -1.29767921262391
H            5.30977900135442        5.18608737170518       -2.80265255349246
H            8.34205813570554       -0.16032552051903       -5.55445865961478
H            7.20066954032574       -1.59346054378043       -3.96657413003980
H            5.62379259248368       -0.62866927959868       -2.32244339469360
H            6.42694179844623        6.37341340646179       -3.89517390566150
H            7.61377500290264        7.80556265351790       -5.44742226033447
H            9.01155758072811        6.82882391081520       -7.23444132539896
H            9.92541946325489        4.89691569778806       -8.35383353903037
H           10.14820761110156        2.44488823702343       -8.55429181011733
H            9.03518331214099        0.97787678467115       -6.98151097622252
