43
 energy: -67.855088516101 gnorm: 0.000614686585 xtb: 6.5.1 (fef0646)
N            1.76296087491946        1.44775545839554       -0.68280683717873
C            2.20714841520056        1.86072181211973        0.64615056925033
C            3.49625057673279        1.10489626856235        0.98226859972081
O            4.53514212977154        1.43696930942132        0.08863385435908
C            5.20214567594262        2.61947470848094        0.22338479669603
C            5.04660612882733        3.51479233563180        1.25368541303049
C            5.80843283637736        4.68136675964522        1.29367920398056
C            6.72590666414149        5.00614685179792        0.31252248932946
C            6.88073867755003        4.11317965010153       -0.78289610989307
C            7.77414364730623        4.40015626732824       -1.85028943150412
C            7.92579722830889        3.46684689362947       -2.86217486408135
C            7.20573707534802        2.27468170443136       -2.87409108173238
C            6.31198045664497        1.99899286201607       -1.87569983669406
C            6.13352926644644        2.90761890394316       -0.81641717449674
C            7.53012352491918        6.21911512654002        0.36680943690998
C            7.49163859626341        7.08423790010703        1.44739502881137
C            8.24624651296621        8.25633141681904        1.47725549797739
C            9.04640117342840        8.58846321796063        0.41962445455533
C            9.13164516388861        7.73838523208358       -0.70027606864246
C            9.95124568986935        8.07551172685765       -1.79525565409361
C           10.02582817915424        7.24788736175750       -2.88062393777613
C            9.30995340642514        6.05127765331898       -2.90271574195748
C            8.50276189086973        5.66384940007906       -1.84647533868268
C            8.38300430851187        6.53071299995593       -0.72662197692690
Cl           1.00097338751329       -1.38258382164228       -0.53077018109821
H            0.97620037942520        2.00088662032624       -1.00380439107978
H            1.35238865511300       -0.06444150996272       -0.62662594641917
H            2.52924342848485        1.54295998060243       -1.34354202340665
H            1.43286470112794        1.59507549177007        1.36862411671021
H            2.38978506846988        2.94285756983644        0.70212753134204
H            3.32917187861700        0.03578340633384        0.83169992906892
H            3.78920959953351        1.27770615518498        2.02269062711359
H            4.34809930720745        3.33580143480196        2.05653310136874
H            5.64776756094438        5.33901774727948        2.13239149770568
H            8.61742464980160        3.64313776637685       -3.66994165966007
H            7.35571801905275        1.57253770556501       -3.68093955134442
H            5.74110700490564        1.08420602895897       -1.87454022030058
H            6.87169915112808        6.86600732600524        2.30198857879058
H            8.18647256069725        8.90103533910969        2.34221502880288
H            9.62517872283741        9.50063529379665        0.42636097651339
H           10.51169577737394        8.99851681192880       -1.76107895498568
H           10.64299459975970        7.50947379288982       -3.72796560187240
H            9.40174744819501        5.42996503984414       -3.77885814821025
