19
 energy: -27.578283664611 gnorm: 0.000293532343 xtb: 6.5.1 (fef0646)
N            3.08156604595764       -1.00457984244056       -0.45656920874342
C            2.46126306420690        0.29846141749966       -0.12780652412170
C            2.91325165003168        0.81635074059467        1.21198777987309
C            3.32135468446261        2.13666511819557        1.34998082254722
C            3.71478416925022        2.62502025407009        2.58400194975674
C            3.71267538678172        1.79314563702342        3.69058387273396
C            3.31002118990782        0.47408486585164        3.55850481503623
C            2.90771970548787       -0.01372012668220        2.32748123257817
Cl           1.87201163643008       -3.37691041382312        1.05245300756606
H            2.89626888571591       -1.25924711871462       -1.42938914946498
H            2.68239296852698       -1.77942781241793        0.13069181172065
H            4.09075615378837       -0.97972843731439       -0.29161097824124
H            1.37770634018348        0.16444848745363       -0.11329159639645
H            2.71829560149864        1.02448981279035       -0.90029121268948
H            3.32580902746090        2.79186088851267        0.49204350716363
H            4.02654701381029        3.65381449239430        2.68314154973375
H            4.02163683281634        2.16996495675045        4.65431537431219
H            3.30440406160489       -0.17831840132764        4.41970950170348
H            2.58159558207985       -1.03956451841265        2.24074344493209
