  12
  -20.080606430000000       0.14337470656655135      !gc
 N          0.5381481054       -1.3085145601       -0.5415572309
 C          1.4296893770       -0.9484423513        0.5882022025
 C          1.6295847012        0.5565206822        0.6390328559
 F          2.0794123159        1.0312247934       -0.5301939113
 Cl        -2.5732780607        0.2394871133        0.0306428056
 H          0.9234931684       -0.9378336496       -1.4177788647
 H         -0.3943362121       -0.8824614073       -0.4123114326
 H          0.4180036862       -2.3250812977       -0.6378141029
 H          2.3998878857       -1.4401678727        0.4569375749
 H          1.0191936840       -1.3234000609        1.5333913449
 H          2.3356683425        0.8423829597        1.4288229388
 H          0.6820562289        1.0593029847        0.8659625786
  12
  -20.080575889999999       0.13881529803258191      !gc
 N          0.5135862613       -1.3013925588        0.5983142277
 C          1.4584075517       -0.9659431995       -0.4949965329
 C          1.6546050505        0.5382692660       -0.5746864478
 F          2.0365383392        1.0461030563        0.6047251633
 Cl        -2.5613845999        0.2430052274       -0.1599410035
 H          0.3895974458       -2.3155505801        0.7121991140
 H         -0.4115306263       -0.8795587352        0.4142535411
 H          0.8557139974       -0.9097602403        1.4834546795
 H          1.0968540802       -1.3670726653       -1.4490551194
 H          2.4230118153       -1.4491861951       -0.3027322558
 H          0.7188830080        1.0297330859       -0.8671399302
 H          2.4021752958        0.8070200297       -1.3312595772
  12
  -20.080571519999999       0.13817485480532074      !gc
 N          0.5386102943       -1.3099804677       -0.5418242266
 C          1.4292361723       -0.9489675589        0.5883490600
 C          1.6277839893        0.5561857567        0.6391212144
 F          2.0768206382        1.0313452138       -0.5302032420
 Cl        -2.5713364575        0.2404665962        0.0307553568
 H          0.4184132540       -2.3264726068       -0.6373469203
 H          0.9252207020       -0.9386254729       -1.4208100949
 H         -0.3911636500       -0.8849271575       -0.4134159548
 H          2.3999147501       -1.4397861786        0.4572734110
 H          1.0189371067       -1.3243027636        1.5334780076
 H          2.3337571104        0.8426372614        1.4287909455
 H          0.6798797942        1.0581169607        0.8663649035
  12
  -20.080553030000001       0.13549759950036291      !gc
 N          0.5389996956       -1.3110257080       -0.5420366547
 C          1.4291560044       -0.9491633990        0.5882055243
 C          1.6263058784        0.5561556080        0.6389189390
 F          2.0759180182        1.0314623321       -0.5301093724
 Cl        -2.5703911337        0.2411320944        0.0309079638
 H         -0.3909044598       -0.8863317332       -0.4145914065
 H          0.4191549573       -2.3306887692       -0.6374976991
 H          0.9250956658       -0.9413182166       -1.4185187234
 H          2.4002562435       -1.4391444818        0.4570598032
 H          1.0192421008       -1.3249208160        1.5333262654
 H          2.3312758862        0.8433635813        1.4292168554
 H          0.6777590318        1.0572825709        0.8652749137
  12
  -20.080535319999999       0.13298193522942114      !gc
 N          0.5123990585       -1.3009079818        0.5982826066
 C          1.4592336872       -0.9665597261       -0.4936119986
 C          1.6553509725        0.5375807898       -0.5747771729
 F          2.0352283737        1.0469074075        0.6046108577
 Cl        -2.5608401244        0.2430077617       -0.1604001566
 H          0.8528060707       -0.9081454221        1.4834238070
 H          0.3877385483       -2.3179507827        0.7137627958
 H         -0.4097099457       -0.8803845604        0.4126383964
 H          1.0996340058       -1.3689789706       -1.4478668465
 H          2.4235042017       -1.4494846171       -0.2989173412
 H          0.7200540684        1.0285501286       -0.8694252694
 H          2.4039827275        0.8055855800       -1.3305684309
  12
  -20.080530710000001       0.13233479210702601      !gc
 N          0.5140507586       -1.3045531203        0.5981249310
 C          1.4601926382       -0.9680183521       -0.4936908801
 C          1.6526172908        0.5366225575       -0.5747774877
 F          2.0297797848        1.0470311064        0.6049972011
 Cl        -2.5581208324        0.2455561182       -0.1605531071
 H         -0.4084622714       -0.8850856736        0.4130404467
 H          0.8553660447       -0.9111062703        1.4861636721
 H          0.3911154893       -2.3189883121        0.7121733327
 H          1.1016797242       -1.3712446527       -1.4480170038
 H          2.4256188137       -1.4485594436       -0.2988097847
 H          0.7164387436        1.0252034179       -0.8706037251
 H          2.4015005152        0.8064594241       -1.3296671740
  12
  -20.078692849999999        1.8925704869864210E-002 !mtd12
 N          0.3564934038       -0.3472065921       -0.5157015179
 C          1.0688545824       -0.0037757826        0.7394041914
 C          2.5655099449        0.0729926767        0.4914284555
 F          2.8522670207        0.9031926674       -0.5200838351
 Cl        -3.1330116230       -0.3258222919        0.0153929634
 H          0.5964265986        0.3325408093       -1.2466869425
 H         -0.6710714749       -0.3453337819       -0.3916193945
 H          0.6373438419       -1.2758756843       -0.8530237754
 H          0.8350699108       -0.7327565490        1.5240950837
 H          0.7109239450        0.9657142736        1.1042437974
 H          2.9624365901       -0.9173552118        0.2382842759
 H          3.1047836811        0.4094354277        1.3855756240
  12
  -20.078690210000001        1.8872907153178110E-002 !gc
 N          0.3569173531       -0.3584293704       -0.5133649856
 C          1.0707880123       -0.0133770861        0.7405084152
 C          2.5662093628        0.0731095522        0.4884409742
 F          2.8454548778        0.9120512580       -0.5179495843
 Cl        -3.1308864898       -0.3211715065        0.0140490192
 H         -0.6673326597       -0.3597858025       -0.3877350271
 H          0.6410513190       -1.2884718224       -0.8532165220
 H          0.5927465551        0.3230149916       -1.2444197573
 H          0.8436906132       -0.7456895181        1.5240511309
 H          0.7082230674        0.9530604384        1.1088689297
 H          2.9675073792       -0.9132899021        0.2269757115
 H          3.1064135658        0.4059456331        1.3833599794
  12
  -20.078666540000000        1.8406059623943337E-002 !gc
 N          0.3569121694       -0.3522976362       -0.5149499436
 C          1.0695527536       -0.0077873780        0.7397405846
 C          2.5657644859        0.0733472197        0.4904839063
 F          2.8495341192        0.9067012048       -0.5192742436
 Cl        -3.1322994760       -0.3238114516        0.0149535768
 H          0.6404420340       -1.2795793385       -0.8534788115
 H          0.5945143333        0.3309575739       -1.2478343552
 H         -0.6676129578       -0.3534448604       -0.3902884520
 H          0.8385595580       -0.7380858085        1.5240312421
 H          0.7093666795        0.9604029811        1.1058287320
 H          2.9649505691       -0.9153892074        0.2346443148
 H          3.1049839380        0.4089726360        1.3849638317
  12
  -20.078659800000001        1.8275250349468090E-002 !md8
 N          0.1944252054        0.6707640774        0.1832599670
 C          1.1386236846       -0.4435696950        0.4433589456
 C          2.5654085682        0.0753944984        0.4916648798
 F          2.8696775213        0.7744310942       -0.6098473778
 Cl        -3.0917881373       -0.5750394120       -0.1567848944
 H          0.2205510782        1.3574810775        0.9465638276
 H         -0.7801059678        0.3376077154        0.0803115719
 H          0.4636042824        1.1580410350       -0.6796093759
 H          1.0494884477       -1.1869021091       -0.3566428365
 H          0.8741711786       -0.9603064615        1.3736657570
 H          3.2880348827       -0.7433827636        0.5987407333
 H          2.7039768016        0.7328495972        1.3579155947
  12
  -20.078657920000001        1.8238929591618526E-002 !gc
 N          0.1934999028        0.6717989386        0.1884621763
 C          1.1378342895       -0.4445302694        0.4395534186
 C          2.5647774707        0.0737515433        0.4902048925
 F          2.8697744625        0.7763360219       -0.6088250960
 Cl        -3.0908705876       -0.5755262259       -0.1577709976
 H          0.4619262881        1.1654647163       -0.6708406077
 H          0.2194510096        1.3548904359        0.9591800164
 H         -0.7782284027        0.3401364737        0.0838603046
 H          1.0479833813       -1.1822428225       -0.3655412605
 H          0.8741752041       -0.9677868253        1.3664257911
 H          3.2870257322       -0.7456199114        0.5951335263
 H          2.7030719402        0.7284073600        1.3585980253
  12
  -20.078654170000000        1.8166696725189571E-002 !mtd12
 N          0.1933142849        0.6774318715        0.1649264272
 C          1.1342051823       -0.4330519845        0.4520594637
 C          2.5615130094        0.0845382515        0.4989785568
 F          2.8743757617        0.7599834592       -0.6147960799
 Cl        -3.0903731388       -0.5788801849       -0.1519247732
 H         -0.7783622239        0.3446451938        0.0652760521
 H          0.4678035691        1.1477263020       -0.7091105912
 H          0.2169810132        1.3797028671        0.9142392837
 H          1.0487080251       -1.1915542234       -0.3339757276
 H          0.8633907388       -0.9314116586        1.3905319566
 H          3.2819401829       -0.7330016258        0.6280502197
 H          2.6954430745        0.7597467964        1.3522000162
  12
  -20.078195130000001        1.1176756479965284E-002 !gc
 N          0.3299786675       -1.6368063311        0.2199862892
 C          1.4301435468       -0.7962070650       -0.3323480277
 C          1.5450479962        0.5454366887        0.3738478557
 F          2.5297414578        1.3092929374       -0.1290014384
 Cl        -2.6686851656        0.1996786616       -0.0648056959
 H          0.2443222096       -2.5307211768       -0.2778199041
 H         -0.5738167363       -1.1426010673        0.1431100388
 H          0.4869153069       -1.8394684685        1.2140678956
 H          1.2706359606       -0.6272445871       -1.4028221920
 H          2.3847536227       -1.3287426199       -0.2583324990
 H          1.7309662370        0.4005881753        1.4444921999
 H          0.6025843852        1.0999187818        0.2967854360
  12
  -20.078175430000002        1.0946172690551079E-002 !gc
 N          0.3334551731       -1.6282009902       -0.2780851158
 C          1.4253986861       -0.8078797324        0.3193109870
 C          1.5487039117        0.5586128619       -0.3359217175
 F          2.5274792120        1.3029370223        0.2061279522
 Cl        -2.6688409044        0.1978800737        0.0423417447
 H          0.5034107707       -1.7937985590       -1.2767404201
 H         -0.5716892627       -1.1376125617       -0.1943624498
 H          0.2421311058       -2.5400320123        0.1854120888
 H          2.3810601163       -1.3369579646        0.2386045880
 H          1.2516850188       -0.6777707008        1.3932959259
 H          0.6051756916        1.1104364809       -0.2498978889
 H          1.7473719585        0.4530308968       -1.4086214830
  12
  -20.078160570000001        1.0775392840521005E-002 !gc
 N          0.3296364168       -1.6362174574        0.2208504460
 C          1.4286130374       -0.7952235237       -0.3332505875
 C          1.5467550410        0.5448552279        0.3753727539
 F          2.5294484155        1.3096914312       -0.1298642867
 Cl        -2.6685667326        0.1991136440       -0.0651404908
 H         -0.5714174976       -1.1430133370        0.1471354075
 H          0.4895082937       -1.8412986509        1.2170024592
 H          0.2421800656       -2.5292456774       -0.2785410242
 H          1.2657797379       -0.6238982511       -1.4028540116
 H          2.3830110710       -1.3286483873       -0.2631434888
 H          1.7373202845        0.3976798429        1.4448967502
 H          0.6039893182        1.0995415911        0.3036001488
  12
  -20.078151989999999        1.0678002477522951E-002 !gc
 N          0.3300564505       -1.6372187566        0.2202160312
 C          1.4290309729       -0.7957611748       -0.3331945974
 C          1.5439522443        0.5457726473        0.3732163146
 F          2.5295949383        1.3091447781       -0.1284192912
 Cl        -2.6678156677        0.1997531129       -0.0645714283
 H          0.4878214044       -1.8395443724        1.2140897718
 H          0.2444709759       -2.5338966750       -0.2790169087
 H         -0.5715220724       -1.1450790424        0.1437565145
 H          1.2683739182       -0.6267601953       -1.4034909439
 H          2.3839997359       -1.3277736748       -0.2601253865
 H          1.7288484730        0.4007140069        1.4440138402
 H          0.6017810399        1.1006571448        0.2954622490
  12
  -20.078140350000002        1.0547284085723637E-002 !gc
 N          0.3335333200       -1.6287649736       -0.2785051927
 C          1.4244915705       -0.8077578669        0.3197318416
 C          1.5480829909        0.5584121623       -0.3361445807
 F          2.5263278983        1.3031196957        0.2062202907
 Cl        -2.6677586406        0.1981478332        0.0425163069
 H          0.2424923005       -2.5404257467        0.1850504904
 H          0.5047281890       -1.7950771316       -1.2800067151
 H         -0.5693841105       -1.1401308606       -0.1957458503
 H          2.3804327037       -1.3365142203        0.2402823394
 H          1.2496108863       -0.6772091602        1.3934826677
 H          0.6044423026        1.1102057772       -0.2511280645
 H          1.7475794378        0.4523622323       -1.4086469490
  12
  -20.078121270000000        1.0336466055895948E-002 !gc
 N          0.3333020407       -1.6273541746       -0.2790829808
 C          1.4237330903       -0.8065599422        0.3204065052
 C          1.5504628353        0.5585389527       -0.3370695832
 F          2.5282366120        1.3029562207        0.2066402110
 Cl        -2.6693101913        0.1970985892        0.0425781368
 H         -0.5693633286       -1.1382959319       -0.1979283988
 H          0.2407379098       -2.5415722043        0.1860068752
 H          0.5057052088       -1.7936266245       -1.2773754773
 H          2.3792459882       -1.3365381963        0.2440821264
 H          1.2463498071       -0.6742810794        1.3935241088
 H          0.6072043924        1.1114466071       -0.2551882216
 H          1.7525119316        0.4506748269       -1.4089105261
  12
  -20.075763899999998        8.5309980222332961E-004 !gc
 N          0.2446663146       -0.9981697040       -0.0343302664
 C          1.0148848892        0.2774532748        0.0130159345
 C          2.5187262679        0.0531452755        0.0059082249
 F          3.2107748885        1.2044747442        0.0457647755
 Cl        -3.2212069900       -0.2708158662       -0.0145975127
 H          0.4664945560       -1.5301689366       -0.8839719816
 H         -0.7744289638       -0.8240451372       -0.0285688288
 H          0.4658050497       -1.5915747276        0.7739892286
 H          0.7387023911        0.8486417845        0.9059282501
 H          0.7401411960        0.9125012295       -0.8365038503
 H          2.8195475473       -0.5004680324       -0.8912141136
 H          2.8189584806       -0.5608566816        0.8627361491
  12
  -20.075728250000001        8.2151639607813177E-004 !gc
 N          0.2435456577       -0.9939461457       -0.0372589855
 C          1.0162524324        0.2799101873        0.0170299110
 C          2.5196171714        0.0528222221        0.0014084627
 F          3.2141417659        1.2024015089        0.0479660153
 Cl        -3.2234331525       -0.2725413369       -0.0139344525
 H          0.4654853609       -1.5930166438        0.7664824275
 H          0.4636784980       -1.5222825136       -0.8933487285
 H         -0.7723784488       -0.8189413200       -0.0285077414
 H          0.7451044677        0.8444529617        0.9156922180
 H          0.7389755449        0.9222688233       -0.8261447472
 H          2.8154428540       -0.4937080256       -0.9017092085
 H          2.8224136749       -0.5690940487        0.8516043618
  12
  -20.075722440000000        8.1648111583474531E-004 !gc
 N          0.2451306392       -1.0002601710       -0.0321275135
 C          1.0141149127        0.2762946792        0.0095741599
 C          2.5181436496        0.0532248153        0.0129445317
 F          3.2089796109        1.2056150191        0.0416140304
 Cl        -3.2200858356       -0.2699086836       -0.0151891955
 H         -0.7710356111       -0.8273573697       -0.0315148253
 H          0.4642508718       -1.5893955644        0.7835328998
 H          0.4712664054       -1.5383162996       -0.8769830257
 H          0.7322928239        0.8544253203        0.8962571860
 H          0.7439134579        0.9042455799       -0.8466672748
 H          2.8240274412       -0.5113915118       -0.8755673092
 H          2.8145741982       -0.5496745160        0.8789421408
  12
  -20.073943950000000        1.2433938967659761E-004 !gc
 N          0.4986189500       -1.6789212012        0.3922093341
 C          1.7321492874       -1.0941513027       -0.1894919959
 C          1.9483151601        0.3148228952        0.3362472328
 F          0.8750212172        1.0887514917        0.1260393587
 Cl        -2.1903826180        0.5467679068       -0.3189740096
 H          0.2880483157       -2.6090983188        0.0085766919
 H         -0.3010017309       -1.0558264455        0.1958455494
 H          0.5789697958       -1.7590932199        1.4128426223
 H          1.6377662137       -1.0626648510       -1.2806017923
 H          2.5970412036       -1.7327531500        0.0261385585
 H          2.8195653848        0.7892713080       -0.1326723211
 H          2.1440391695        0.2940997410        1.4146804740
  12
  -20.073898430000000        1.1849204305910698E-004 !gc
 N          0.5761576845       -1.6762738739       -0.2776981737
 C          1.6416607066       -1.0943325057        0.5756241550
 C          1.9760316527        0.3151215670        0.1174211186
 F          0.8834297888        1.0889474698        0.0670265127
 Cl        -2.2077484463        0.5453349250       -0.1780424147
 H          0.8899312943       -1.7522050562       -1.2524312017
 H         -0.2474211908       -1.0535047275       -0.2685765469
 H          0.2827787743       -2.6080597894        0.0432697343
 H          2.5321088255       -1.7336657080        0.5653692000
 H          1.2965421920       -1.0644644180        1.6153655185
 H          2.4226860768        0.2953690502       -0.8837715655
 H          2.7106469717        0.7889873888        0.7802484801
  12
  -20.073873490000000        1.1540577911361081E-004 !gc
 N          0.4989980801       -1.6798711273        0.3921019650
 C          1.7317983811       -1.0939147675       -0.1899488783
 C          1.9473556843        0.3148549846        0.3365484401
 F          0.8740146559        1.0886231831        0.1260491088
 Cl        -2.1895513032        0.5473146343       -0.3188544462
 H          0.5799418644       -1.7605755591        1.4124960992
 H          0.2881492969       -2.6127853254        0.0069279952
 H         -0.2988012367       -1.0589439821        0.1969955454
 H          1.6368103021       -1.0618298360       -1.2809885395
 H          2.5971923270       -1.7321082539        0.0248474642
 H          2.8188053013        0.7896923209       -0.1316053947
 H          2.1424089674        0.2936729296        1.4150944301
  12
  -20.073850499999999        1.1263207492583367E-004 !gc
 N          0.5763787444       -1.6763745525       -0.2782199342
 C          1.6410640035       -1.0942670619        0.5760349118
 C          1.9757564442        0.3151610933        0.1180297624
 F          0.8831984420        1.0889394442        0.0664708170
 Cl        -2.2074824105        0.5453955765       -0.1778321321
 H          0.2825376460       -2.6079077936        0.0425891200
 H          0.8921784980       -1.7527903258       -1.2555041307
 H         -0.2447855315       -1.0552975761       -0.2701895592
 H          2.5315740169       -1.7335135966        0.5664918435
 H          1.2950285218       -1.0644032731        1.6154739226
 H          2.4233887432        0.2953477190       -0.8827282667
 H          2.7096723741        0.7891876482        0.7815213639
  12
  -20.073845710000001        1.1206261517033158E-004 !gc
 N          0.4993017871       -1.6815289114        0.3867608520
 C          1.7361314705       -1.0943664367       -0.1855123422
 C          1.9452535633        0.3152537314        0.3413747428
 F          0.8720831702        1.0868696757        0.1224403624
 Cl        -2.1895647389        0.5489543439       -0.3183558671
 H         -0.2970460205       -1.0600667437        0.1882259318
 H          0.5735417097       -1.7651270503        1.4105351902
 H          0.2915409521       -2.6107856640       -0.0010498400
 H          1.6504040572       -1.0634598216       -1.2773484862
 H          2.6005816329       -1.7310985255        0.0372650006
 H          2.8191424193        0.7913665757       -0.1208739175
 H          2.1324154708        0.2953380169        1.4213402337
  12
  -20.073837019999999        1.1103684308500410E-004 !gc
 N          0.5760659434       -1.6766613987       -0.2771578968
 C          1.6422735166       -1.0943663900        0.5750176853
 C          1.9755973845        0.3152134038        0.1165111965
 F          0.8827566669        1.0887812857        0.0680335571
 Cl        -2.2074663420        0.5457138860       -0.1781969954
 H         -0.2453192260       -1.0561369114       -0.2676282548
 H          0.2824128889       -2.6112421335        0.0448957545
 H          0.8891820906       -1.7525723554       -1.2522686741
 H          2.5329080227       -1.7334131237        0.5636433130
 H          1.2982327140       -1.0645894730        1.6151172093
 H          2.4205417189        0.2957863098       -0.8854503831
 H          2.7112269465        0.7891217019        0.7781822187
  12
  -20.072765290000000        3.5721862934177564E-005 !gc
 N          1.4212738584       -1.7819987688        0.1390014450
 C          0.7934056001       -0.7178608360       -0.6831948886
 C          1.0737985832        0.6489139068       -0.0821622626
 F          2.3859131580        0.8423325399        0.1069651957
 Cl        -2.6694686049        0.4336507523        0.1829856994
 H          1.3024970239       -2.7138669325       -0.2756874128
 H          1.0181826766       -1.7938486331        1.0853506168
 H          2.4242591441       -1.5916036551        0.2349947448
 H         -0.2845669503       -0.8929234437       -0.7780335363
 H          1.2008998646       -0.7570552170       -1.6998021929
 H          0.5736283115        0.7493476760        0.8884217183
 H          0.6881993556        1.4546114539       -0.7190661127
  12
  -20.072636240000001        3.1162107832359420E-005 !mtd13
 N          1.4568649863       -1.7979578135        0.1955446533
 C          0.8355490760       -0.7874562220       -0.6964568096
 C          1.0221620906        0.6078840151       -0.1254345717
 F          2.3121387643        0.8671146643        0.1265040324
 Cl        -2.6436617255        0.4733591831        0.1692760687
 H          1.4000789690       -2.7464105951       -0.1938326369
 H          1.0000563016       -1.7977555922        1.1172995255
 H          2.4440828298       -1.5627672128        0.3423966763
 H         -0.2266193430       -1.0120461359       -0.8483255143
 H          1.3044437373       -0.8397071099       -1.6856533429
 H          0.4659794186        0.7138008911        0.8135771752
 H          0.6364472101        1.3757550171       -0.8074090858
  12
  -20.072634690000001        3.1111037574841764E-005 !gc
 N          1.4540439016       -1.7944815321        0.1821587075
 C          0.8242881112       -0.7741143206       -0.6923975991
 C          1.0317852795        0.6161724892       -0.1162442401
 F          2.3273458962        0.8613183263        0.1207795909
 Cl        -2.6498428810        0.4658737779        0.1732457725
 H          1.0111792144       -1.8008530688        1.1072480505
 H          2.4466539080       -1.5626011251        0.3176652366
 H          1.3893884250       -2.7394314559       -0.2148985743
 H         -0.2420140997       -0.9902251623       -0.8267958327
 H          1.2752116628       -0.8234270889       -1.6900560055
 H          0.4886269318        0.7223293958        0.8302971199
 H          0.6449207943        1.3915601013       -0.7890087498
  12
  -20.072577070000001        2.9270771997491198E-005 !md8
 N          1.4761027426       -1.8036468558        0.2066834370
 C          0.8429372605       -0.8093098155       -0.6950474623
 C          1.0035133173        0.5924125376       -0.1318322311
 F          2.2878693042        0.8747870150        0.1238249543
 Cl        -2.6355570857        0.4873611424        0.1675312903
 H          2.4577761353       -1.5499517091        0.3586208758
 H          1.4386670870       -2.7581149055       -0.1785335090
 H          1.0143067010       -1.8060024139        1.1226058428
 H         -0.2145661640       -1.0524337637       -0.8509700604
 H          1.3180464561       -0.8599838392       -1.6813597634
 H          0.4416878138        0.6945245439        0.8042488687
 H          0.6077817385        1.3495485654       -0.8200371453
  12
  -20.072532729999999        2.7929098885693877E-005 !mtd1
 N          1.4948945075       -1.8069073217        0.1944369357
 C          0.8290841257       -0.8132789507       -0.6842933965
 C          0.9951479248        0.5870859546       -0.1192844137
 F          2.2836669660        0.8762913324        0.1059837334
 Cl        -2.6335317692        0.4918429355        0.1730157697
 H          1.0609140053       -1.8158698712        1.1237500376
 H          2.4818968403       -1.5463505613        0.3186333557
 H          1.4524568035       -2.7572845837       -0.1925664276
 H         -0.2305412899       -1.0635654028       -0.8118793133
 H          1.2766274472       -0.8559169089       -1.6837674362
 H          0.4558706363        0.6820950789        0.8306754565
 H          0.5780739709        1.3445616782       -0.7943864916
  12
  -20.072411970000001        2.4578731776768085E-005 !md1
 N          0.9749412229       -1.8838864119        0.4515979145
 C          1.8402169600       -1.0774220251       -0.4441054674
 C          1.3232248298        0.3486068891       -0.5301165484
 F          1.1447205894        0.8819231177        0.6858756038
 Cl        -2.3372225634        0.7303846563       -0.1699138287
 H          1.3073173660       -2.8510348578        0.5501179776
 H          0.0094835294       -1.9041526552        0.0949208739
 H          0.9454542745       -1.4503049843        1.3808905580
 H          1.8950977757       -1.5357832543       -1.4384611201
 H          2.8634032460       -1.0722559902       -0.0514752066
 H          0.3603949950        0.3730275084       -1.0543238968
 H          2.0065691543        0.9907324585       -1.0994883929
  12
  -20.072113420000001        1.7920717344738529E-005 !mtd6
 N          1.6480869632       -1.8312300698        0.0515339233
 C          0.7445058889       -0.8234307276       -0.5573297373
 C          1.0104332115        0.5508309850        0.0331152783
 F          2.3024744407        0.8891867191       -0.0718916031
 Cl        -2.6894805977        0.5161841256        0.2184651448
 H          1.5372135525       -2.7589581609       -0.3743063188
 H          1.4704822878       -1.9141565528        1.0613951870
 H          2.6217157117       -1.5316492384       -0.0653077755
 H         -0.3030176223       -1.1155743323       -0.4193119614
 H          0.9137022750       -0.7914001836       -1.6396542750
 H          0.7412083528        0.5685540208        1.0958766578
 H          0.4043408569        1.3226119269       -0.4572823303
  12
  -20.072105709999999        1.7775102726015725E-005 !mtd7
 N          1.2872081765       -1.6488142134       -0.6341503955
 C          0.8571538530       -0.7245581858        0.4444393812
 C          1.8585018322        0.4067881780        0.6027195903
 F          2.0721079004        1.0394550577       -0.5587231381
 Cl        -2.7991051640        0.3730836497        0.1617309772
 H          0.5935433724       -2.3844269298       -0.8130376106
 H          2.1813879984       -2.0971588179       -0.3935746050
 H          1.4321862852       -1.1185556102       -1.4997580462
 H          0.7256578526       -1.2695921076        1.3864965776
 H         -0.1239059202       -0.3061960174        0.1929991316
 H          2.8204444168        0.0189980624        0.9584920892
 H          1.5210594896        1.1407234685        1.3450123595
  12
  -20.071918870000001        1.4586342281592261E-005 !mtd13
 N          1.6959305208       -1.8334804294       -0.0473015070
 C          0.6998519884       -0.8147810475       -0.4628988792
 C          1.0514242943        0.5400505092        0.1275437082
 F          2.3086185723        0.8942105928       -0.1704824113
 Cl        -2.7151729029        0.5158006871        0.2394255158
 H          1.5216703136       -2.7465059709       -0.4836165626
 H          1.6863274466       -1.9546691498        0.9742181328
 H          2.6357255257       -1.5189134384       -0.3104530171
 H         -0.3095968773       -1.1233063678       -0.1671179613
 H          0.6902576284       -0.7419145802       -1.5564083469
 H          0.9562718057        0.5172506184        1.2196833137
 H          0.3716771126        1.3229418511       -0.2308950908
  12
  -20.071852690000000        1.3599789247613951E-005 !mtd5
 N          1.7419025975       -1.8397561839       -0.0532451329
 C          0.6966768143       -0.8571003791       -0.4333326765
 C          1.0229623316        0.5106926244        0.1416260238
 F          2.2553093962        0.9072384003       -0.2030502110
 Cl        -2.6967256988        0.5411518748        0.2414506977
 H          1.7782758652       -1.9518224668        0.9655919577
 H          2.6620697459       -1.4966632392       -0.3583755692
 H          1.5791859207       -2.7618566287       -0.4750930651
 H         -0.2899652867       -1.1991759411       -0.0997961388
 H          0.6440739946       -0.7878645294       -1.5258308223
 H          0.9689805138        0.4876376676        1.2365771318
 H          0.3038255932        1.2687103518       -0.1925677401
  12
  -20.071526870000000        9.6337566931472308E-006 !mtd1
 N          1.7640563455       -1.8367143087       -0.1888014369
 C          0.6566162359       -0.8529830006       -0.2815274552
 C          1.0979135825        0.4934867860        0.2663751852
 F          2.2209080709        0.9207355759       -0.3261905001
 Cl        -2.7053652778        0.5383441076        0.2572434517
 H          2.0230092553       -1.9986055809        0.7903569509
 H          2.5933508291       -1.4640464283       -0.6691051980
 H          1.5178187314       -2.7392072101       -0.6126159191
 H         -0.2293029386       -1.2226592780        0.2478567043
 H          0.3610995868       -0.7373590649       -1.3305186991
 H          1.2895492178        0.4236370487        1.3437044792
 H          0.3196113793        1.2552550258        0.1346023705
  12
  -20.071365109999999        8.1181285649228925E-006 !mtd4
 N          1.8503487833       -1.8432405592       -0.2455322930
 C          0.6776857789       -0.9487156007       -0.0801910932
 C          1.0299545335        0.4671495014       -0.5035040871
 F          2.1125242579        0.9183172193        0.1441490077
 Cl        -2.6709604992        0.5916359552        0.2869542531
 H          1.6642706333       -2.7935017417        0.0958786411
 H          2.6499203491       -1.4584371990        0.2740588607
 H          2.1245843047       -1.9016841866       -1.2322909128
 H          0.3689931297       -0.9460489870        0.9710894790
 H         -0.1781385187       -1.3295689633       -0.6502414201
 H          0.1982364519        1.1594745698       -0.3224068605
 H          1.2396340213        0.5032029422       -1.5789190833
  12
  -20.071324420000000        7.7759972010592246E-006 !md4
 N          1.8731104610       -1.8392628747       -0.3282515073
 C          0.6901673694       -0.9969671451       -0.0218424097
 C          1.1283224033        0.3928473452        0.4075993947
 F          1.9396191947        0.9539854775       -0.4989188635
 Cl        -2.6394402922        0.6216945151        0.2507528097
 H          2.4516023291       -1.9694328459        0.5086248934
 H          2.4539550651       -1.3682274908       -1.0339496613
 H          1.6081858054       -2.7644150017       -0.6866866494
 H          0.0712463446       -1.4711005885        0.7488356278
 H          0.0602889860       -0.9180389837       -0.9152318966
 H          1.6676219295        0.3458094847        1.3611451165
 H          0.2677508141        1.0543774308        0.5660412331
  12
  -20.071295240000001        7.5395581668285675E-006 !md8
 N          1.9305397075       -1.8448916474       -0.0847764665
 C          0.6941366446       -1.0292122402       -0.1772952429
 C          1.0297016615        0.3933653742       -0.5915730951
 F          1.9473964253        0.9373864872        0.2188033694
 Cl        -2.6310498325        0.6455721717        0.2469689965
 H          2.3882978783       -1.9135720250       -1.0000455212
 H          1.7429404121       -2.7980878461        0.2571064516
 H          2.5908368022       -1.3916264642        0.5555129106
 H          0.1960106023       -1.0144430995        0.7984838066
 H         -0.0153858768       -1.4866691261       -0.8771030650
 H          0.1380158275        1.0326975675       -0.5920747614
 H          1.4280620626        0.4099656072       -1.6127495772
  12
  -20.071250830000000        7.1934374767633118E-006 !md5
 N          1.7818102868       -1.8333638514       -0.2741174757
 C          0.6488071608       -0.8815693124       -0.1591811220
 C          1.1386748866        0.4656214658        0.3439990048
 F          2.1415032245        0.9363300421       -0.4093294480
 Cl        -2.6871782988        0.5517459084        0.2598010420
 H          2.2041746397       -2.0052370715        0.6446067752
 H          2.5096046962       -1.4271702252       -0.8764437393
 H          1.4926299163       -2.7350892983       -0.6717365464
 H         -0.1283650357       -1.2886041686        0.4981878109
 H          0.1821920287       -0.7530546855       -1.1424807203
 H          1.5018381601        0.3794776777        1.3750309096
 H          0.3306613330        1.2074996587        0.3568933530
  12
  -20.071111649999999        6.2083154235026472E-006 !mtd10
 N          1.7702360997       -1.8349480519       -0.2276721087
 C          0.6411759122       -0.8758017175       -0.1386696014
 C          1.1019426049        0.5208000323       -0.5198141357
 F          2.1662449550        0.9005223169        0.1999027008
 Cl        -2.6758537069        0.5454130836        0.2797425890
 H          1.5057538407       -2.7758323237        0.0873886393
 H          2.5492438687       -1.5008490826        0.3545198046
 H          2.1134829921       -1.9008296302       -1.1921172720
 H          0.2568937271       -0.8627194484        0.8873261082
 H         -0.1907449911       -1.2032504440       -0.7735867284
 H          0.3023729041        1.2593215034       -0.3810880717
 H          1.3805399052        0.5554253055       -1.5794882070
