  12
        -19.99099606
 N          0.5267995979        1.2763435052        0.5512918683
 C          1.4418036926        0.9604798179       -0.5686199437
 C          1.6512457858       -0.5405011020       -0.6508756940
 F          2.0155007363       -1.0400792023        0.5316193733
 Cl        -2.5488532808       -0.2310222613       -0.0396617609
 H         -0.4018420420        0.8445820310        0.3971587762
 H          0.3937919741        2.2936278434        0.6840921224
 H          0.9008717836        0.8806930350        1.4259315944
 H          2.4051580082        1.4553270631       -0.3999077602
 H          1.0491577644        1.3591885360       -1.5120442487
 H          2.4133664839       -0.8036663592       -1.3945736653
 H          0.7242315782       -1.0406182905       -0.9550042711
  12
        -19.99084243
 N          0.5264584494        1.2760615011        0.5509316081
 C          1.4417244941        0.9607893398       -0.5688975548
 C          1.6519195043       -0.5400970612       -0.6513926911
 F          2.0134659504       -1.0401438679        0.5317511394
 Cl        -2.5479855591       -0.2311833016       -0.0392880267
 H          0.3918590782        2.2941986337        0.6833088661
 H          0.9016306175        0.8805043950        1.4272850070
 H         -0.3990603207        0.8441395931        0.3974643182
 H          2.4047803458        1.4560999469       -0.3998492543
 H          1.0491156341        1.3595495300       -1.5123203711
 H          2.4160218445       -0.8025953064       -1.3933006069
 H          0.7258769180       -1.0404638459       -0.9580895431
  12
        -19.98910088
 N          0.1867795616       -0.6199556347       -0.1780608559
 C          1.1496996597        0.4729887735       -0.4416084182
 C          2.5604996670       -0.0851347879       -0.4797025594
 F          2.8166668344       -0.8162512801        0.6067889055
 Cl        -3.0632611626        0.5654788185        0.1497747087
 H         -0.7870838967       -0.2767740480       -0.0782643262
 H          0.4488638303       -1.1099707026        0.6916295900
 H          0.2064593352       -1.3188667078       -0.9357062688
 H          1.0745666150        1.2211749541        0.3559317504
 H          0.9006778041        0.9902850647       -1.3762572265
 H          3.3104345277        0.7119975458       -0.5530177259
 H          2.6943459105       -0.7292399628       -1.3566919677
  12
        -19.98900075
 N          0.1868991436       -0.6175541126       -0.1859514377
 C          1.1514011285        0.4769121574       -0.4371982512
 C          2.5617625595       -0.0821495023       -0.4768769009
 F          2.8153745389       -0.8215428039        0.6046139860
 Cl        -3.0638698501        0.5642840416        0.1518515578
 H          0.2075319696       -1.3113182439       -0.9520737069
 H         -0.7859067277       -0.2747518775       -0.0848797687
 H          0.4460756802       -1.1150391620        0.6781929342
 H          1.0750928275        1.2179900196        0.3668415578
 H          0.9050658028        1.0028340859       -1.3677336351
 H          3.3125716704        0.7147920641       -0.5429647758
 H          2.6966149769       -0.7198351769       -1.3583896246
  12
        -19.98584233
 N          0.3172536264        1.6007502151        0.2954012380
 C          1.4165337106        0.7985092152       -0.3059932197
 C          1.5382605601       -0.5768815088        0.3283442969
 F          2.5268042532       -1.3009364440       -0.2103898288
 Cl        -2.6527107892       -0.1747141844       -0.0509531233
 H          0.4778216627        1.7508321405        1.3053970886
 H         -0.5879348469        1.1097790681        0.1969369020
 H          0.2234445844        2.5269731716       -0.1491016792
 H          2.3694299403        1.3302594300       -0.2059757063
 H          1.2542358132        0.6865205446       -1.3842070108
 H          0.6012623304       -1.1349998012        0.2181329797
 H          1.7214759389       -0.4883798339        1.4053199494
  12
        -19.98578447
 N          0.3141330510        1.5860128722        0.2965497217
 C          1.4168040374        0.7911200535       -0.3085721293
 C          1.5567307769       -0.5798132534        0.3315937388
 F          2.5472224283       -1.2974961389       -0.2121412587
 Cl        -2.6695277334       -0.1653296594       -0.0508339584
 H         -0.5904077640        1.0916103792        0.1986202613
 H          0.2156083104        2.5143312429       -0.1467377447
 H          0.4754939912        1.7345716711        1.3037558786
 H          2.3652929462        1.3323760865       -0.2180989868
 H          1.2478647175        0.6720004152       -1.3849864916
 H          0.6239749410       -1.1469974732        0.2323786490
 H          1.7486120773       -0.4840610038        1.4064418613
  12
        -19.98563051
 N          0.3139902358        1.6054386286       -0.2052452473
 C          1.4190538377        0.7753127482        0.3457759559
 C          1.5467159314       -0.5601235539       -0.3677903902
 F          2.5425576921       -1.3074711582        0.1235017886
 Cl        -2.6638354894       -0.1716128828        0.0530409298
 H          0.4692895294        1.8120956837       -1.2060153562
 H          0.2198818319        2.5067728083        0.2914822630
 H         -0.5882230109        1.1087494177       -0.1300574644
 H          1.2604544014        0.5998400086        1.4157939481
 H          2.3691056795        1.3171593927        0.2744404562
 H          1.7242075108       -0.4080603418       -1.4386911720
 H          0.6139454492       -1.1299125264       -0.2860006840
  12
        -19.98352046
 N          0.3122807780        0.9074532347        0.1267133067
 C          1.5470467236        0.8711487414       -0.6884957407
 C          2.5220509776       -0.1269656796       -0.0918214035
 F          1.9298569627       -1.3029011856        0.1240254111
 Cl        -2.8092442991       -0.0575258734        0.1855857623
 H          0.5150984436        1.2235532653        1.0898347402
 H         -0.0828277641       -0.0436706774        0.1985685778
 H         -0.4092439743        1.5294253879       -0.2719991366
 H          1.9934473697        1.8702760501       -0.7599179094
 H          1.2957168491        0.5698148853       -1.7122592957
 H          2.9039177435        0.2373086214        0.8692349329
 H          3.3919754217       -0.2833295227       -0.7412746443
  12
        -19.98332786
 N          0.2556664990        0.7538015955       -0.5678666660
 C          1.5990616972        1.0204218545       -0.0069044094
 C          2.5066038942       -0.1665519386       -0.2723339216
 F          1.9267302636       -1.3061564796        0.1085715771
 Cl        -2.7944327680       -0.0243911528        0.3339881133
 H         -0.4198437051        1.5112939355       -0.3625897976
 H         -0.1145875825       -0.1263935374       -0.1753628200
 H          0.3016740470        0.6315711872       -1.5905129156
 H          1.5138699424        1.1814445746        1.0739970495
 H          2.0176310345        1.9436087770       -0.4260526182
 H          3.4673468567       -0.0679080691        0.2476877020
 H          2.7309223201       -0.2462347531       -1.3425185257
  12
        -19.98198112
 N          0.2211433317        0.9540708136        0.0351788365
 C          1.0060798742       -0.3092374871       -0.0097859080
 C          2.5046376028       -0.0583338777       -0.0047405417
 F          3.2115933146       -1.1943305910       -0.0439401008
 Cl        -3.2010767403        0.3009028090        0.0115465156
 H         -0.7995921473        0.7750838412        0.0302390352
 H          0.4381139509        1.5536064301       -0.7771186590
 H          0.4404535977        1.4952724057        0.8846312999
 H          0.7386482171       -0.8867463999       -0.9018875260
 H          0.7426194081       -0.9464579080        0.8422247515
 H          2.7975456512        0.5005083802        0.8915565059
 H          2.7936383723        0.5586181698       -0.8633146472
  12
        -19.98181589
 N          0.2207295109        0.9534332415        0.0350266716
 C          1.0059877982       -0.3096928914       -0.0101019929
 C          2.5044743850       -0.0583979070       -0.0012881362
 F          3.2117843895       -1.1939584672       -0.0463643574
 Cl        -3.2009718623        0.3011731499        0.0115207557
 H          0.4381491751        1.5538932104       -0.7776957644
 H          0.4399139217        1.4951457710        0.8863825385
 H         -0.7971038568        0.7744275304        0.0295318093
 H          0.7408774909       -0.8856880307       -0.9038602666
 H          0.7407154678       -0.9485146721        0.8401490234
 H          2.7959501169        0.4951693454        0.8987693986
 H          2.7944271069        0.5639784502       -0.8556043367
