  12
        -20.08060643
 N          0.5381481054       -1.3085145601       -0.5415572309
 C          1.4296893770       -0.9484423513        0.5882022025
 C          1.6295847012        0.5565206822        0.6390328559
 F          2.0794123159        1.0312247934       -0.5301939113
 Cl        -2.5732780607        0.2394871133        0.0306428056
 H          0.9234931684       -0.9378336496       -1.4177788647
 H         -0.3943362121       -0.8824614073       -0.4123114326
 H          0.4180036862       -2.3250812977       -0.6378141029
 H          2.3998878857       -1.4401678727        0.4569375749
 H          1.0191936840       -1.3234000609        1.5333913449
 H          2.3356683425        0.8423829597        1.4288229388
 H          0.6820562289        1.0593029847        0.8659625786
  12
        -20.07869285
 N          0.3564934038       -0.3472065921       -0.5157015179
 C          1.0688545824       -0.0037757826        0.7394041914
 C          2.5655099449        0.0729926767        0.4914284555
 F          2.8522670207        0.9031926674       -0.5200838351
 Cl        -3.1330116230       -0.3258222919        0.0153929634
 H          0.5964265986        0.3325408093       -1.2466869425
 H         -0.6710714749       -0.3453337819       -0.3916193945
 H          0.6373438419       -1.2758756843       -0.8530237754
 H          0.8350699108       -0.7327565490        1.5240950837
 H          0.7109239450        0.9657142736        1.1042437974
 H          2.9624365901       -0.9173552118        0.2382842759
 H          3.1047836811        0.4094354277        1.3855756240
  12
        -20.07819513
 N          0.3299786675       -1.6368063311        0.2199862892
 C          1.4301435468       -0.7962070650       -0.3323480277
 C          1.5450479962        0.5454366887        0.3738478557
 F          2.5297414578        1.3092929374       -0.1290014384
 Cl        -2.6686851656        0.1996786616       -0.0648056959
 H          0.2443222096       -2.5307211768       -0.2778199041
 H         -0.5738167363       -1.1426010673        0.1431100388
 H          0.4869153069       -1.8394684685        1.2140678956
 H          1.2706359606       -0.6272445871       -1.4028221920
 H          2.3847536227       -1.3287426199       -0.2583324990
 H          1.7309662370        0.4005881753        1.4444921999
 H          0.6025843852        1.0999187818        0.2967854360
  12
        -20.07576390
 N          0.2446663146       -0.9981697040       -0.0343302664
 C          1.0148848892        0.2774532748        0.0130159345
 C          2.5187262679        0.0531452755        0.0059082249
 F          3.2107748885        1.2044747442        0.0457647755
 Cl        -3.2212069900       -0.2708158662       -0.0145975127
 H          0.4664945560       -1.5301689366       -0.8839719816
 H         -0.7744289638       -0.8240451372       -0.0285688288
 H          0.4658050497       -1.5915747276        0.7739892286
 H          0.7387023911        0.8486417845        0.9059282501
 H          0.7401411960        0.9125012295       -0.8365038503
 H          2.8195475473       -0.5004680324       -0.8912141136
 H          2.8189584806       -0.5608566816        0.8627361491
  12
        -20.07394395
 N          0.4986189500       -1.6789212012        0.3922093341
 C          1.7321492874       -1.0941513027       -0.1894919959
 C          1.9483151601        0.3148228952        0.3362472328
 F          0.8750212172        1.0887514917        0.1260393587
 Cl        -2.1903826180        0.5467679068       -0.3189740096
 H          0.2880483157       -2.6090983188        0.0085766919
 H         -0.3010017309       -1.0558264455        0.1958455494
 H          0.5789697958       -1.7590932199        1.4128426223
 H          1.6377662137       -1.0626648510       -1.2806017923
 H          2.5970412036       -1.7327531500        0.0261385585
 H          2.8195653848        0.7892713080       -0.1326723211
 H          2.1440391695        0.2940997410        1.4146804740
  12
        -20.07385050
 N          0.5763787444       -1.6763745525       -0.2782199342
 C          1.6410640035       -1.0942670619        0.5760349118
 C          1.9757564442        0.3151610933        0.1180297624
 F          0.8831984420        1.0889394442        0.0664708170
 Cl        -2.2074824105        0.5453955765       -0.1778321321
 H          0.2825376460       -2.6079077936        0.0425891200
 H          0.8921784980       -1.7527903258       -1.2555041307
 H         -0.2447855315       -1.0552975761       -0.2701895592
 H          2.5315740169       -1.7335135966        0.5664918435
 H          1.2950285218       -1.0644032731        1.6154739226
 H          2.4233887432        0.2953477190       -0.8827282667
 H          2.7096723741        0.7891876482        0.7815213639
  12
        -20.07276529
 N          1.4212738584       -1.7819987688        0.1390014450
 C          0.7934056001       -0.7178608360       -0.6831948886
 C          1.0737985832        0.6489139068       -0.0821622626
 F          2.3859131580        0.8423325399        0.1069651957
 Cl        -2.6694686049        0.4336507523        0.1829856994
 H          1.3024970239       -2.7138669325       -0.2756874128
 H          1.0181826766       -1.7938486331        1.0853506168
 H          2.4242591441       -1.5916036551        0.2349947448
 H         -0.2845669503       -0.8929234437       -0.7780335363
 H          1.2008998646       -0.7570552170       -1.6998021929
 H          0.5736283115        0.7493476760        0.8884217183
 H          0.6881993556        1.4546114539       -0.7190661127
  12
        -20.07263624
 N          1.4568649863       -1.7979578135        0.1955446533
 C          0.8355490760       -0.7874562220       -0.6964568096
 C          1.0221620906        0.6078840151       -0.1254345717
 F          2.3121387643        0.8671146643        0.1265040324
 Cl        -2.6436617255        0.4733591831        0.1692760687
 H          1.4000789690       -2.7464105951       -0.1938326369
 H          1.0000563016       -1.7977555922        1.1172995255
 H          2.4440828298       -1.5627672128        0.3423966763
 H         -0.2266193430       -1.0120461359       -0.8483255143
 H          1.3044437373       -0.8397071099       -1.6856533429
 H          0.4659794186        0.7138008911        0.8135771752
 H          0.6364472101        1.3757550171       -0.8074090858
  12
        -20.07253273
 N          1.4948945075       -1.8069073217        0.1944369357
 C          0.8290841257       -0.8132789507       -0.6842933965
 C          0.9951479248        0.5870859546       -0.1192844137
 F          2.2836669660        0.8762913324        0.1059837334
 Cl        -2.6335317692        0.4918429355        0.1730157697
 H          1.0609140053       -1.8158698712        1.1237500376
 H          2.4818968403       -1.5463505613        0.3186333557
 H          1.4524568035       -2.7572845837       -0.1925664276
 H         -0.2305412899       -1.0635654028       -0.8118793133
 H          1.2766274472       -0.8559169089       -1.6837674362
 H          0.4558706363        0.6820950789        0.8306754565
 H          0.5780739709        1.3445616782       -0.7943864916
  12
        -20.07241197
 N          0.9749412229       -1.8838864119        0.4515979145
 C          1.8402169600       -1.0774220251       -0.4441054674
 C          1.3232248298        0.3486068891       -0.5301165484
 F          1.1447205894        0.8819231177        0.6858756038
 Cl        -2.3372225634        0.7303846563       -0.1699138287
 H          1.3073173660       -2.8510348578        0.5501179776
 H          0.0094835294       -1.9041526552        0.0949208739
 H          0.9454542745       -1.4503049843        1.3808905580
 H          1.8950977757       -1.5357832543       -1.4384611201
 H          2.8634032460       -1.0722559902       -0.0514752066
 H          0.3603949950        0.3730275084       -1.0543238968
 H          2.0065691543        0.9907324585       -1.0994883929
  12
        -20.07211342
 N          1.6480869632       -1.8312300698        0.0515339233
 C          0.7445058889       -0.8234307276       -0.5573297373
 C          1.0104332115        0.5508309850        0.0331152783
 F          2.3024744407        0.8891867191       -0.0718916031
 Cl        -2.6894805977        0.5161841256        0.2184651448
 H          1.5372135525       -2.7589581609       -0.3743063188
 H          1.4704822878       -1.9141565528        1.0613951870
 H          2.6217157117       -1.5316492384       -0.0653077755
 H         -0.3030176223       -1.1155743323       -0.4193119614
 H          0.9137022750       -0.7914001836       -1.6396542750
 H          0.7412083528        0.5685540208        1.0958766578
 H          0.4043408569        1.3226119269       -0.4572823303
  12
        -20.07210571
 N          1.2872081765       -1.6488142134       -0.6341503955
 C          0.8571538530       -0.7245581858        0.4444393812
 C          1.8585018322        0.4067881780        0.6027195903
 F          2.0721079004        1.0394550577       -0.5587231381
 Cl        -2.7991051640        0.3730836497        0.1617309772
 H          0.5935433724       -2.3844269298       -0.8130376106
 H          2.1813879984       -2.0971588179       -0.3935746050
 H          1.4321862852       -1.1185556102       -1.4997580462
 H          0.7256578526       -1.2695921076        1.3864965776
 H         -0.1239059202       -0.3061960174        0.1929991316
 H          2.8204444168        0.0189980624        0.9584920892
 H          1.5210594896        1.1407234685        1.3450123595
  12
        -20.07191887
 N          1.6959305208       -1.8334804294       -0.0473015070
 C          0.6998519884       -0.8147810475       -0.4628988792
 C          1.0514242943        0.5400505092        0.1275437082
 F          2.3086185723        0.8942105928       -0.1704824113
 Cl        -2.7151729029        0.5158006871        0.2394255158
 H          1.5216703136       -2.7465059709       -0.4836165626
 H          1.6863274466       -1.9546691498        0.9742181328
 H          2.6357255257       -1.5189134384       -0.3104530171
 H         -0.3095968773       -1.1233063678       -0.1671179613
 H          0.6902576284       -0.7419145802       -1.5564083469
 H          0.9562718057        0.5172506184        1.2196833137
 H          0.3716771126        1.3229418511       -0.2308950908
  12
        -20.07185269
 N          1.7419025975       -1.8397561839       -0.0532451329
 C          0.6966768143       -0.8571003791       -0.4333326765
 C          1.0229623316        0.5106926244        0.1416260238
 F          2.2553093962        0.9072384003       -0.2030502110
 Cl        -2.6967256988        0.5411518748        0.2414506977
 H          1.7782758652       -1.9518224668        0.9655919577
 H          2.6620697459       -1.4966632392       -0.3583755692
 H          1.5791859207       -2.7618566287       -0.4750930651
 H         -0.2899652867       -1.1991759411       -0.0997961388
 H          0.6440739946       -0.7878645294       -1.5258308223
 H          0.9689805138        0.4876376676        1.2365771318
 H          0.3038255932        1.2687103518       -0.1925677401
  12
        -20.07152687
 N          1.7640563455       -1.8367143087       -0.1888014369
 C          0.6566162359       -0.8529830006       -0.2815274552
 C          1.0979135825        0.4934867860        0.2663751852
 F          2.2209080709        0.9207355759       -0.3261905001
 Cl        -2.7053652778        0.5383441076        0.2572434517
 H          2.0230092553       -1.9986055809        0.7903569509
 H          2.5933508291       -1.4640464283       -0.6691051980
 H          1.5178187314       -2.7392072101       -0.6126159191
 H         -0.2293029386       -1.2226592780        0.2478567043
 H          0.3610995868       -0.7373590649       -1.3305186991
 H          1.2895492178        0.4236370487        1.3437044792
 H          0.3196113793        1.2552550258        0.1346023705
  12
        -20.07136511
 N          1.8503487833       -1.8432405592       -0.2455322930
 C          0.6776857789       -0.9487156007       -0.0801910932
 C          1.0299545335        0.4671495014       -0.5035040871
 F          2.1125242579        0.9183172193        0.1441490077
 Cl        -2.6709604992        0.5916359552        0.2869542531
 H          1.6642706333       -2.7935017417        0.0958786411
 H          2.6499203491       -1.4584371990        0.2740588607
 H          2.1245843047       -1.9016841866       -1.2322909128
 H          0.3689931297       -0.9460489870        0.9710894790
 H         -0.1781385187       -1.3295689633       -0.6502414201
 H          0.1982364519        1.1594745698       -0.3224068605
 H          1.2396340213        0.5032029422       -1.5789190833
  12
        -20.07132442
 N          1.8731104610       -1.8392628747       -0.3282515073
 C          0.6901673694       -0.9969671451       -0.0218424097
 C          1.1283224033        0.3928473452        0.4075993947
 F          1.9396191947        0.9539854775       -0.4989188635
 Cl        -2.6394402922        0.6216945151        0.2507528097
 H          2.4516023291       -1.9694328459        0.5086248934
 H          2.4539550651       -1.3682274908       -1.0339496613
 H          1.6081858054       -2.7644150017       -0.6866866494
 H          0.0712463446       -1.4711005885        0.7488356278
 H          0.0602889860       -0.9180389837       -0.9152318966
 H          1.6676219295        0.3458094847        1.3611451165
 H          0.2677508141        1.0543774308        0.5660412331
  12
        -20.07125083
 N          1.7818102868       -1.8333638514       -0.2741174757
 C          0.6488071608       -0.8815693124       -0.1591811220
 C          1.1386748866        0.4656214658        0.3439990048
 F          2.1415032245        0.9363300421       -0.4093294480
 Cl        -2.6871782988        0.5517459084        0.2598010420
 H          2.2041746397       -2.0052370715        0.6446067752
 H          2.5096046962       -1.4271702252       -0.8764437393
 H          1.4926299163       -2.7350892983       -0.6717365464
 H         -0.1283650357       -1.2886041686        0.4981878109
 H          0.1821920287       -0.7530546855       -1.1424807203
 H          1.5018381601        0.3794776777        1.3750309096
 H          0.3306613330        1.2074996587        0.3568933530
  12
        -20.07111165
 N          1.7702360997       -1.8349480519       -0.2276721087
 C          0.6411759122       -0.8758017175       -0.1386696014
 C          1.1019426049        0.5208000323       -0.5198141357
 F          2.1662449550        0.9005223169        0.1999027008
 Cl        -2.6758537069        0.5454130836        0.2797425890
 H          1.5057538407       -2.7758323237        0.0873886393
 H          2.5492438687       -1.5008490826        0.3545198046
 H          2.1134829921       -1.9008296302       -1.1921172720
 H          0.2568937271       -0.8627194484        0.8873261082
 H         -0.1907449911       -1.2032504440       -0.7735867284
 H          0.3023729041        1.2593215034       -0.3810880717
 H          1.3805399052        0.5554253055       -1.5794882070
