12
 energy: -20.088937794494 gnorm: 0.000551008091 xtb: 6.5.1 (fef0646)
N            1.14142727045203        0.01805904756466        0.40862584751245
C            2.60662949666728       -0.06431418164159        0.25521922191165
C            3.12997132950585        1.21370336927317       -0.37474654456816
F            3.02799955662867        2.25901232199201        0.54105925981320
Cl           0.05071572269479        0.70092643296674       -2.35185801981343
H            0.75033365130309       -0.84821332976137        0.78563129641070
H            0.70277162646303        0.20317640922982       -0.53278912916212
H            0.89026642838828        0.80598654358957        1.01267106639685
H            2.85341696159554       -0.89021239555968       -0.40974199006600
H            3.07530333139866       -0.21360822805787        1.22922066057167
H            2.52843213432187        1.49645606639031       -1.24165918386795
H            4.18603249058098        1.14185794401424       -0.63618248513874
