22
 energy: -34.754528170260 gnorm: 0.000292712500 xtb: 6.5.1 (fef0646)
N            1.05365118957764        0.30794472683515       -0.10689227841451
C            2.50832528642446        0.31406122191131       -0.02316094154717
C            3.15819717628612        1.60476921890967       -0.55217960246650
C            4.65266110636336        1.51812521737370       -0.44058263706619
C            5.39690650470286        0.88902048192082       -1.43125088221014
C            6.76938071636819        0.76563183794411       -1.32071801398397
C            7.40828000371699        1.27673053828618       -0.20250272725257
Cl           9.12485116795586        1.12939587117389       -0.05594498323397
C            6.68613772817116        1.90623721430425        0.79801406123748
C            5.31349817325587        2.02021515282838        0.67312529472965
Cl          -0.00921057159970       -2.28740476788161        0.81315360353997
H            0.48062815783950       -1.09169086638603        0.39983827452043
H            0.74639350230650        0.43123706569394       -1.06633641441031
H            0.65384794161908        1.05136431703990        0.45636919320105
H            2.87874143322873       -0.54066189500326       -0.59304412735921
H            2.78434949403450        0.16748452631947        1.02309206662074
H            2.78894248834389        2.45601562606435        0.02463934323360
H            2.87074280203475        1.74563122462769       -1.59721244926184
H            4.89902066691099        0.49290096633051       -2.30412472106041
H            7.34141056519602        0.27781330564698       -2.09412118815408
H            7.19374929450726        2.30222922620074        1.66328927003296
H            4.75119517275855        2.51224978985539        1.45316985930611
