21
 energy: -25.727647017718 gnorm: 0.000148692992 xtb: 6.5.1 (fef0646)
N            2.70355096329894        0.14873054355033        1.54509203336166
C            2.42344210813485        0.04722259689077        0.05496778422442
C            0.93949314836234        0.28043028614352       -0.16884894981606
C            2.90007922505844       -1.30207654425530       -0.42069146453545
C            3.89639098879454       -1.38927422211862       -1.38457739537589
C            4.33431526340538       -2.62662946829342       -1.82474540344286
C            3.78510594108913       -3.78416946497128       -1.29989427351040
C            2.79279519778558       -3.70413465793860       -0.33614240753380
C            2.35103899180927       -2.46929531105043        0.10295832747593
H            3.71233275462796        0.09056823153948        1.72897372631724
H            2.24234585384730       -0.64434422297160        2.01212814164603
H            2.33434810406591        1.02675145917181        1.93057686054021
H            3.00084314526106        0.83691364910583       -0.43353677565377
H            0.33648005955240       -0.47148546325501        0.33305971809696
H            0.72533850843246        0.21604820851011       -1.23198498364631
H            0.63826847069400        1.26835442673266        0.17211470598437
H            4.32349835910755       -0.48879581944353       -1.80021511813778
H            5.10493577900943       -2.68425421711099       -2.57672401288467
H            4.12579174204090       -4.74795640661540       -1.64285720969178
H            2.35865970695312       -4.60349476667749        0.07107902924620
H            1.56290568866927       -2.42897883694235        0.84330766733605
