35
 energy: -46.001540388641 gnorm: 0.000932213591 xtb: 6.5.1 (fef0646)
N            2.79485713090891       -1.58818867525106       -2.47119914056812
C            2.37467234092538       -0.16675140702128       -2.42563078955949
C            2.95949937320649        0.50962296985602       -1.18598667112133
C            4.46193442423292        0.57391255899681       -1.25898552911391
C            5.08878553027919        1.56587026045154       -2.00647803582532
C            6.46412457864368        1.62563874439572       -2.09620977651046
C            7.26709131196393        0.68682769668110       -1.44161455007795
C            8.71763617557238        0.71254718541766       -1.48244682385744
C            9.47679827082583        1.73853553626778       -1.89082022804595
C           10.92837101960829        1.77531614579179       -1.90026139531993
C           11.72288603360127        0.63733192157664       -1.74030638556777
C           13.10065012292687        0.73025153640479       -1.74517832864617
C           13.72025955336920        1.95893189990641       -1.90896840109681
C           12.94775939926746        3.09658339927440       -2.07780326583050
C           11.56975973215824        3.00453273332551       -2.07871407408734
C            6.63105308112899       -0.31760017508847       -0.70740627871142
C            5.25395233140143       -0.37130725311841       -0.61535353127545
H            2.47773851798457       -2.04071829356113       -3.33551834687681
H            2.40867821177129       -2.09882770949390       -1.66848733322404
H            3.82060863182579       -1.64054460554481       -2.42133515338596
H            1.28735242887239       -0.11306088282372       -2.40060277737854
H            2.73427668102817        0.33975200307470       -3.32070280385209
H            2.65509461464036       -0.02639516488472       -0.28710664719126
H            2.55939643521566        1.52090078681744       -1.12220002369270
H            4.49325486671957        2.31004021364517       -2.51518396333943
H            6.92269548870073        2.40478217900286       -2.68494254361041
H            9.19606777577508       -0.18063611662230       -1.10257194135189
H            9.00666060732908        2.65753642351913       -2.21589944399499
H           11.26286905030241       -0.33162965992123       -1.62388735505393
H           13.69930558655537       -0.16073313574691       -1.62163825901553
H           14.79779255339496        2.02837805282868       -1.90911943778307
H           13.42375184983150        4.05720427491876       -2.21017268250674
H           10.97597910617703        3.89793992714687       -2.20975247387943
H            7.23215742919738       -1.05228837116907       -0.19224369427479
H            4.79997975465678       -1.14107499905490       -0.00877191437725
