16
 energy: -23.044005833208 gnorm: 0.000227625104 xtb: 6.5.1 (fef0646)
O            3.50514707915304       -1.23321579173572       -1.22385783436945
C            2.51830441071006       -0.71694192326126       -0.34711257028182
C            2.95644268956920       -0.93716511981179        1.10116896612767
C            4.40894104022986       -0.52840313357191        1.34490181304350
N            4.63672677615142        0.85713369840646        0.93163819686630
Cl           2.54042371027612        2.61690908209071        1.90079168991856
H            3.15459278412735       -1.23816762968479       -2.11922957441809
H            1.55769875782587       -1.22230594906009       -0.50805090668895
H            2.37293507936738        0.35641594890960       -0.53017524940165
H            2.85801554168142       -1.99323464335781        1.35260596523512
H            2.29751541598442       -0.35588159966854        1.74415822681761
H            5.06695127822162       -1.21891248498204        0.80460737050687
H            4.62264922150099       -0.60417726118084        2.41281028069360
H            4.60480243449121        0.91856416839815       -0.08075913055943
H            5.54007646620000        1.18990688209580        1.24983082300472
H            3.55458731451013        1.75861575641438        1.45816193350597
