13
 energy: -20.336657743147 gnorm: 0.000650749748 xtb: 6.5.1 (fef0646)
N            0.96286511437874       -0.31306052862868       -0.07928653761160
C            2.41949903238524       -0.21014512885348       -0.07370899340064
C            2.88248134230182        0.35952663063582        1.27306753886622
C            4.31538746412535        0.49722053151392        1.30643047567327
N            5.45379001325278        0.59151393785865        1.32234753814844
Cl          -0.15037323799543        2.31239218412177        0.69557333660783
H            0.61851979356872       -0.57985674783763       -0.99432291370014
H            0.34081590049501        1.10010393283960        0.31907114273305
H            0.64339132352748       -0.99613810550831        0.60001127752842
H            2.71025766265981        0.47373306433840       -0.87455111845329
H            2.91153473279224       -1.17701799933852       -0.25317437914510
H            2.57782734391283       -0.30093026594096        2.08996971309874
H            2.42521351459539        1.33916849479957        1.43098291965457
