35
 energy: -50.234668148752 gnorm: 0.000595710713 xtb: 6.5.1 (fef0646)
N            2.76104000411238        2.83128638963148       -0.26074562157455
C            2.34180965971902        1.41279676714671       -0.15424336953210
C            2.91699045820826        0.61150530491032       -1.32224056221099
C            4.42064304514277        0.56380665376280       -1.26208669638271
C            5.06295702458263       -0.31397060594742       -0.39389786018465
C            6.43967347775640       -0.35822415749253       -0.31895838748802
C            7.22748022591950        0.48201873996636       -1.11158826867724
C            8.67827347378319        0.46224538458686       -1.09489663011277
C            9.44737930488067       -0.49400490416005       -0.55566632470854
C           10.89817998242535       -0.52729359786314       -0.57581428170185
C           11.67567374026688        0.58628062491873       -0.90508728485474
C           13.04705976743343        0.46618980735501       -0.91409096193276
F           13.79178941808111        1.56944268969418       -1.23597123617013
C           13.70430804093121       -0.71097850270573       -0.61217576822986
C           12.93236039809618       -1.81245963029764       -0.27808201890537
C           11.55448365655582       -1.72027856242606       -0.25497305358086
C            6.57652020199799        1.37551458546303       -1.96649332498940
C            5.19782945392261        1.41391650146266       -2.04193536455664
H            2.46468290566769        3.36793372454100        0.56182945699244
H            2.35555020552318        3.26082645378347       -1.10039928124194
H            3.78515145017912        2.87633552905824       -0.34047457859010
H            1.25412632105832        1.35684832752670       -0.16373799319834
H            2.70962643690379        1.00237259151767        0.78581712310485
H            2.59797037002195        1.04663279175035       -2.26936964190204
H            2.52339472400930       -0.40313139842256       -1.27253749943130
H            4.47826139359079       -0.98113189803146        0.22213229116848
H            6.91076289053807       -1.04625611054941        0.36486114814360
H            9.14705024736810        1.28969860846868       -1.61087230118915
H            8.98874373680546       -1.35524196440783       -0.09018653368481
H           11.23370436167300        1.54061398486946       -1.13941033647318
H           14.78064871805446       -0.75232372079848       -0.63656932644088
H           13.41669426317346       -2.74477611435714       -0.03414200732833
H           10.96975668947834       -2.58919758956526        0.00642715193018
H            7.16656116453613        2.03434080004023       -2.58783531844906
H            4.73030278760085        2.09375249657190       -2.73895533761972
