22
 energy: -30.745602579916 gnorm: 0.000365645722 xtb: 6.5.1 (fef0646)
N            1.19578773526086        0.38396514203425        0.18790495428826
C            2.66626842408128        0.21052172749792        0.06077100038248
C            3.37644270211646        1.24984795512574        0.92162953247791
C            3.04770884333700       -1.19606049701386        0.45354599722718
C            3.72407187931401       -2.01178133017457       -0.44207515053299
C            4.08435982457585       -3.29997908777301       -0.08743006136350
C            3.76894144243445       -3.78772599802954        1.16898558293417
C            3.09566665350423       -2.97978322093512        2.06945496001113
C            2.73904542407737       -1.69158955371781        1.71468281878040
Cl          -0.27329873830436       -1.60993121369369       -1.57241934941308
H            0.90987148958820        1.32066792338899       -0.10704124016807
H            0.89508326354570        0.22522710883403        1.15251487003848
H            0.68695481667208       -0.31179036393705       -0.41840473910762
H            2.92169718271646        0.35879126195424       -0.99107518379736
H            3.12588015335594        1.12101008656709        1.97008075498094
H            3.10896887035290        2.25508692930941        0.60960787865340
H            4.45092045416396        1.13617280284360        0.81761712635962
H            3.96348905647748       -1.64307113686067       -1.42837474528019
H            4.60522112036581       -3.92756249458670       -0.79570805316950
H            4.04410316823760       -4.79539735526731        1.44332744848411
H            2.84666905651179       -3.35800974409178        3.04970205324893
H            2.22243717761470       -1.07964894147409        2.43834354496506
