22
 energy: -27.942688565199 gnorm: 0.000587627567 xtb: 6.5.1 (fef0646)
N            3.77780585888461        0.34181505986543       -0.80414750715400
C            2.52576098039825       -0.08065375983970       -0.11545578270608
C            2.79616243722650       -1.26271165204291        0.77623106438653
C            3.14732661495136       -1.07742650025926        2.10865602551092
C            3.42645300875393       -2.15842876153056        2.92060046686726
C            3.36580909706458       -3.46082477769713        2.42174316017530
C            3.65327720598741       -4.63624289593350        3.23519480867805
C            3.83563638367561       -4.66171904498118        4.55037453385685
C            3.01537377980469       -3.63727792427741        1.08133557307375
C            2.73297863496939       -2.55596217565846        0.27072690344288
H            3.59938512386983        1.14250466258217       -1.42163286186183
H            4.14966559661272       -0.43411431336071       -1.36439920718578
H            4.48868543624065        0.60693695463610       -0.11208908078185
H            1.78223978898217       -0.34609269451472       -0.86664132472316
H            2.15025891768827        0.75250109197132        0.47786054587260
H            3.19367861412129       -0.08224618889243        2.52440685784351
H            3.70064888221095       -1.99188107725205        3.95000393873675
H            3.70579194411635       -5.56652872867916        2.68291513210525
H            3.77995305649114       -3.78156939334227        5.16711224205274
H            4.04086411611938       -5.58261716835522        5.06845868530336
H            2.95906799719322       -4.63872993063705        0.68006459418598
H            2.45010652463784       -2.72694078180135       -0.75691876767893
