22
 energy: -27.835112160479 gnorm: 0.000532770075 xtb: 6.5.1 (fef0646)
N            1.71817336961544        0.96020251375155       -0.71201034328834
C            2.59784872798735       -0.07445801727734       -0.02875873826892
C            3.05530366334886        0.44665998610671        1.28935832799667
C            4.30547255201597        0.87283190302845        1.50079480626616
C            4.86087450912851        1.38942406412983        2.73419013519787
C            4.16091941098308        1.39416816575374        3.94519771357569
C            4.74584264797996        1.89652153411376        5.08998847174059
C            6.03536240088818        2.40614478689378        5.05252956510973
C            6.74246270433197        2.40698728870210        3.86055051226491
C            6.16317425589881        1.90089376670886        2.71405323290723
H            1.39137735644880        0.63468525686059       -1.63004297232413
H            2.25063665370990        1.83171539417259       -0.83050228215785
H            0.90379359072589        1.16297273499911       -0.11794068593349
H            3.44270679051506       -0.27741726412966       -0.68768691817289
H            2.00095747780699       -0.98096707158124        0.08423166742188
H            2.31786159165634        0.45517930155641        2.07616905784807
H            5.00785633200950        0.83412990645426        0.67501666549823
H            3.16251160662373        0.98895578021287        3.99785913240776
H            4.19699432894782        1.88861434216265        6.01915564227342
H            6.48779064598646        2.79666847577751        5.95066534484255
H            7.74710840455655        2.79902541044286        3.82697205223676
H            6.72021097883447        1.90049174116040        1.78801961255808
