  19
        -26.20403309
 N         -1.0976278207        1.1600262774        0.2913963692
 C         -0.2301338072       -0.0012262637        0.1654936619
 C          1.2485905415        0.3332126947        0.3225423311
 C          2.1551474294       -0.8845521253        0.1868267426
 C          3.6273717190       -0.5061001468        0.2919809613
 O          4.0206277678        0.4285341053       -0.6876253432
 Cl        -4.0596072446       -0.2948439739       -0.1848525842
 H         -0.8337713626        1.8557068314       -0.3971043993
 H         -0.9509166762        1.5980854064        1.1942363794
 H         -2.8748604232        0.2959182071        0.0070857267
 H         -0.4084076956       -0.4750742936       -0.8081721065
 H         -0.5282051134       -0.7511114171        0.9080621825
 H          1.4164112958        0.8132701002        1.2929148268
 H          1.5363400376        1.0870368764       -0.4189208700
 H          1.9719618386       -1.3699929732       -0.7780487666
 H          1.8939344988       -1.6306292114        0.9468453229
 H          4.2808711420       -1.3860763597        0.2208268186
 H          3.8341000738       -0.0457086972        1.2649956821
 H          3.8436575793        0.0723816599       -1.5863963449
