19
 energy: -26.209516581759 gnorm: 0.000644658555 xtb: 6.5.1 (fef0646)
N            1.02861788404016       -0.41433491366760       -0.27608612647657
C            2.48773609130748       -0.41657516075399       -0.36506923473472
C            2.96809322029198        0.85356358661557       -1.06144134423840
C            4.48964275947704        0.95616641724813       -1.05928013481879
C            4.97002023852835        2.21811709857502       -1.77991722497557
O            6.37269403118123        2.32528670923484       -1.80776474899567
Cl           0.16353576019472        1.92752520390491        1.26684277642147
H            0.68490165697145       -1.24723309616821        0.18914941665820
H            0.61081286124993       -0.35839427657650       -1.19945000382663
H            0.56798905677453        0.83347829894339        0.54514355307892
H            2.86873750605849       -1.29809901276803       -0.90023035572455
H            2.87604117663774       -0.44501267072189        0.65568460628306
H            2.53998349783614        1.71447418077113       -0.54728647606725
H            2.60449514655240        0.86210083382516       -2.09134466001715
H            4.92680298011265        0.08379143977498       -1.55045528174458
H            4.85016980212769        0.97435765077256       -0.02685712842064
H            4.52254034408541        3.10482610490849       -1.30784961970301
H            4.66108933995298        2.19450272733531       -2.82769908531651
H            6.69929664661966        2.35892887874676       -0.90158892738150
