20
 energy: -27.569637085275 gnorm: 0.000408459590 xtb: 6.5.1 (fef0646)
N            0.89787594641369        0.02589858522726       -0.11021762268712
C            2.36737338329535       -0.15925778121887       -0.02602867494259
C            2.98665413883841       -0.11740089256029       -1.42060466865612
C            4.51405453669966       -0.09124758472131       -1.37442686946410
C            5.12177162131128       -1.38391355174007       -0.82816246153905
C            6.62144529767598       -1.40029134909625       -0.99774011037926
O            7.24749825713108       -2.49786320878922       -0.56628810681051
O            7.25846700124831       -0.49671229432011       -1.48853555032857
H            0.47205622565437       -0.00568091899952        0.82288438956668
H            0.47983151072755       -0.71207306896626       -0.68917114213840
H            0.67986651708538        0.93270339147015       -0.53980009416152
H            2.57153219341318       -1.11595945170086        0.45211442206668
H            2.79336667863662        0.63622548384571        0.58548148321872
H            2.66092173815211        0.78519362714312       -1.93809457973665
H            2.66678309161536       -0.98004597953627       -2.00569977210849
H            4.86358612028928        0.74815121400411       -0.77149310040042
H            4.90370127049087        0.06625758692482       -2.38170284579581
H            4.71502558325741       -2.24602014011257       -1.36215538020493
H            4.91053238976768       -1.49720617771148        0.23643408554383
H            6.65386649829636       -3.17478748914216       -0.19213340104245
