  27
        -35.93987017
 N         -4.1295023563       -0.5784272288       -0.3684810818
 C         -3.2167795997        0.4767991284        0.1606571238
 C         -1.7374668266        0.2497178019       -0.1956198742
 C         -1.1438902855       -0.9993165853        0.5027972597
 C          0.3313437888       -1.2170390918        0.1235166774
 C          1.1941149632        0.0272661664        0.4211604370
 C          2.6243333905       -0.1944948862       -0.0152748929
 O          3.4371339944        0.8773651659       -0.0064600483
 O          2.9864708916       -1.2990425724       -0.3467342353
 C          0.6039984577        1.2787635137       -0.2602876972
 C         -0.8698206750        1.4945740874        0.1248849951
 H         -5.1160790852       -0.3669199888       -0.1536313050
 H         -3.9236663773       -1.5033894650        0.0362256645
 H         -4.0506604675       -0.6609420892       -1.3929156882
 H         -3.3237594279        0.5436175591        1.2487417432
 H         -3.5402904092        1.4492051563       -0.2290617741
 H         -1.6796179671        0.0780610154       -1.2814350898
 H         -1.7360064879       -1.8903011844        0.2633967821
 H         -1.2289771588       -0.8741109480        1.5875708115
 H          0.4194457056       -1.4524011082       -0.9435582254
 H          0.7566361948       -2.0892557531        0.6386623061
 H          1.2084706392        0.1930211454        1.5086072758
 H          4.3241522008        0.5930430681       -0.2860499736
 H          0.6960281895        1.1631235222       -1.3461543114
 H          1.2160931777        2.1562255873       -0.0113122633
 H         -1.2761562538        2.3805221277       -0.3785029257
 H         -0.9406378577        1.7101288775        1.1964187294
