  22
        -34.23936178
 N         -3.1644675552        0.8515717739        1.5067884686
 C         -3.1845523972        1.9527319030        0.5053882594
 C         -2.5117826299        1.5450544342       -0.8028675690
 C         -1.1059459823        1.0601159916       -0.6038281053
 C         -0.8475333997       -0.2912004656       -0.4192873141
 C          0.4426090600       -0.7378914890       -0.1930303187
 C          1.4863802890        0.1618051159       -0.1426338241
 Br         3.2488948679       -0.4490884300        0.1685653095
 C          1.2421308502        1.5079498812       -0.3158432033
 C         -0.0479641900        1.9566756345       -0.5418085443
 Cl        -3.9370777063       -2.0996947501       -0.1880731350
 H         -3.7178040604        1.0723345199        2.3511567843
 H         -2.1989485617        0.6481095694        1.8083752357
 H         -3.5389022954       -0.0230792262        1.0932244002
 H         -2.6803670835        2.8315068882        0.9251782676
 H         -4.2202082889        2.2644156164        0.3193833803
 H         -2.5107536318        2.3797042147       -1.5143252786
 H         -3.0952746211        0.7517316693       -1.2841731178
 H         -1.6674291240       -0.9906350798       -0.4398194100
 H          0.6457959007       -1.7875353512       -0.0502284461
 H          2.0669919523        2.2014177201       -0.2705032048
 H         -0.2409907089        3.0095349622       -0.6680426222
