16
 energy: -22.221736127937 gnorm: 0.000331370019 xtb: 6.5.1 (fef0646)
N            1.19797130472531       -0.30681260078133        0.08881310264865
C            2.64084274820786       -0.10500747301503        0.21306353373809
C            3.20104176146133        0.40042106536409       -1.10708930136931
S            4.99447782708810        0.70866572589722       -0.93597880727548
C            5.22389579653436        1.74897109348939       -2.40405406653549
Cl          -0.04530786757946        2.16552813571119       -0.91047549404244
H            0.79049005063352       -0.56899843001126        0.97943895992152
H            0.99336877100838       -1.03423313227506       -0.58897255298275
H            0.52494723402627        1.02156408725617       -0.42579195465445
H            3.17126919823597       -1.02084578867786        0.50818470370331
H            2.81035218907905        0.64830151615996        0.98540270501493
H            2.72092037312792        1.33819281742531       -1.38296491528354
H            3.05441247277822       -0.33441409343220       -1.90112689631814
H            6.27858361339107        1.99830828790120       -2.45068972420494
H            4.63008919007385        2.65313020697924       -2.30179314296046
H            4.93187533720823        1.19487858200935       -3.29183614939918
