20
 energy: -20.333218296271 gnorm: 0.000420355083 xtb: 6.5.1 (fef0646)
N            0.89660477971595        0.05494286627613        0.02426788699127
C            2.39581848766853        0.06838438600521        0.03431874638302
C            2.91379667226549        1.27522234332330        0.80158926256452
C            4.44523242670121        1.29564369619786        0.81498808782420
C            4.98469853450386        2.50302775950702        1.58151081274557
C            6.50777315687964        2.51854220684059        1.59104145739970
H            0.52899074450152       -0.75480123550143       -0.49071289740854
H            0.54607578540757        0.91656728811883       -0.41518320941791
H            0.54462117655370        0.02328442464752        0.99044054486619
H            2.74661750462281        0.09516614108445       -0.99812828723854
H            2.74514439126580       -0.85522197010272        0.49761561345317
H            2.55388122170330        1.24673089367953        1.83193984807525
H            2.55435483270078        2.19612199853775        0.33819765595510
H            4.81806710434036        1.32636056087981       -0.20988290119558
H            4.81768615984582        0.38119537858492        1.27905819042898
H            4.61624239707365        2.47479601830922        2.60864330247938
H            4.61595880804193        3.42052425791493        1.11913176260986
H            6.89802330530718        1.62245544970945        2.06700998116957
H            6.87106155473935        3.38264513204246        2.13937334365771
H            6.89770095616156        2.56782240394517        0.57746079865709
