16
 energy: -21.093196168682 gnorm: 0.000469505396 xtb: 6.5.1 (fef0646)
N            1.05311602974827        0.22748680429181        0.39816434176245
C            2.50068979092434        0.42991175334236        0.43505865582282
C            2.95902656334707        1.16022483258240       -0.82897103607085
C            4.45017980244798        1.26063217551499       -0.88045802459608
C            5.12352259167535        2.39463690571949       -0.91346131745169
Cl           0.34742564414216       -1.35038195460603       -1.97264044835028
H            0.72944898046130       -0.26682142901589        1.22187555014523
H            0.68179193434247       -0.61328431158412       -0.86271307446135
H            0.56711563783397        1.11634112200991        0.33748832201545
H            2.96900559823021       -0.55616637328582        0.47814503550291
H            2.81789599803030        0.99925059722236        1.32050358173633
H            2.51603889773056        2.15766893237435       -0.85910880009741
H            2.60139480913289        0.59756258360684       -1.69390310917844
H            4.97329976260601        0.31348528081630       -0.88602296478674
H            4.62525243689918        3.35067232567694       -0.91186610185667
H            6.19888552244807        2.42022075533371       -0.95477061013504
