14
 energy: -20.034596920714 gnorm: 0.000969021751 xtb: 6.5.1 (fef0646)
N            1.11695620050449        0.25700361849563        0.53812027853470
C            2.55169379574149        0.16834004096163        0.27161982655358
C            2.83816660420799        0.70794841822753       -1.13250502914275
C            2.57941785662565        2.13202744819295       -1.19995877686457
C            2.34939940034989        3.30661689775242       -1.19637033984165
Cl          -0.23041076902708       -1.50538007186409       -1.37044826302987
H            0.89212591527235       -0.04020573523732        1.48132426485825
H            0.38937801621141       -0.66437048978295       -0.47117343432838
H            0.79568325308151        1.21121310541631        0.40106982776032
H            2.83655243817873       -0.88497482091515        0.32425323067976
H            3.14490793848388        0.72925040519935        1.00780900867871
H            2.19866247511361        0.19005325832785       -1.85005224081069
H            3.88229580512558        0.52083827353052       -1.39223596707759
H            2.16286107013094        4.33895965169619       -1.22960238596981
