  28
        -40.29277807
 N         -2.4302760939       -0.2388872951        0.8420160144
 C         -2.4349999545        1.1647360003        0.4626965508
 C         -1.1946658930        1.9169261355        0.9424517566
 C          0.0722818886        1.3478854621        0.3772467279
 C          0.8228605212        0.4591175035        1.0978092081
 C          1.9918028901       -0.1233362211        0.5583677912
 C          2.7798935168       -1.0417116674        1.2888189060
 C          3.9004790715       -1.5864421349        0.7377005980
 C          4.2898681364       -1.2445817559       -0.5644650885
 C          3.5526337073       -0.3633248272       -1.2966541774
 C          2.3843155957        0.2208053276       -0.7563448931
 C          1.5915606470        1.1349327952       -1.4853493725
 C          0.4706167515        1.6766048352       -0.9328965518
 Cl        -5.2695390258       -1.2394122834       -0.5826311088
 H         -1.5892171685       -0.6779911579        0.4836208755
 H         -4.1263390313       -0.8428500524       -0.0073867372
 H         -2.3662425468       -0.3136671781        1.8516312813
 H         -3.3492215061        1.6334785510        0.8478111760
 H         -2.5114845235        1.2308931069       -0.6300418771
 H         -1.1472408492        1.8883553881        2.0359539645
 H         -1.2616389805        2.9786148769        0.6785101786
 H          0.5179430537        0.1900733298        2.0938167589
 H          2.4809439571       -1.3048097150        2.2893533830
 H          4.4940219133       -2.2856875511        1.3042381780
 H          5.1791133213       -1.6841688733       -0.9867212101
 H          3.8516264738       -0.1015194038       -2.2975372829
 H          1.8853076426        1.3955891377       -2.4880418172
 H         -0.1319247775        2.3667436135       -1.4993914839
