17
 energy: -20.461240923401 gnorm: 0.000353081846 xtb: 6.5.1 (fef0646)
N            0.94107430246269        0.05808408055429       -0.04396653434352
C            2.43861772787474        0.06047242540916       -0.07755803078445
C            2.94721611177202        0.08953680983504       -1.51181872593753
C            4.48074838268687        0.09029448973125       -1.53148636395095
C            5.01215280317759        0.12032695936616       -2.95513700610728
I            7.17830076351323        0.12040841745619       -2.95961609805239
H            0.58890948436044        0.03867965886929        0.92175915909941
H            0.58060929093405       -0.76593552480929       -0.54387977732195
H            0.57867026713280        0.90028283525471       -0.51110956910588
H            2.79608110087631       -0.83514434020769        0.43278962325074
H            2.79404787027809        0.93593401190665        0.46796955009222
H            2.58527474616428        0.98523826500883       -2.02090662482281
H            2.58572862529965       -0.78509955706295       -2.05661104387727
H            4.85244922996361       -0.80227234383758       -1.02546888363813
H            4.85207829934144        0.96097829092728       -0.98842432138387
H            4.69842393102488        1.01936633930278       -3.47995345750348
H            4.69843706313729       -0.75578081770413       -3.51741189561287
