  17
        -20.74466585
 N         -1.3994041472       -1.6160073108        0.4291831581
 C         -2.1870156259       -0.7102613789       -0.4535149139
 C         -2.2578137248        0.7344494760        0.0479285859
 C         -1.0217132898        1.6047661208       -0.2424369308
 C          0.2155924995        1.2929751466        0.5886399816
 Br         1.2280341417       -0.1809590947       -0.0850995207
 H         -0.4069075124       -1.3074406502        0.4857648126
 H         -1.4005651193       -2.5857952113        0.0781447398
 H         -1.7815647552       -1.6348536419        1.3860755620
 H         -3.2007583995       -1.1252994073       -0.5423780517
 H         -1.7737434917       -0.7337188751       -1.4694094931
 H         -2.4553399287        0.7312414793        1.1258174740
 H         -3.1383714574        1.2179893559       -0.3979995027
 H         -1.2917782836        2.6599189144       -0.0857204726
 H         -0.7657659880        1.5345351577       -1.3073093932
 H         -0.0390734577        1.0971990682        1.6318298033
 H          0.9203592666        2.1295470652        0.5850197225
  17
        -20.74350535
 N         -1.4797258792       -1.7456294545       -0.7521857767
 C         -2.0983277389       -0.7379181902        0.1581504296
 C         -2.1899238324        0.6664627653       -0.4550456475
 C         -1.0274975138        1.6156306784       -0.1168486375
 C          0.3280890726        1.2202516479       -0.6833088861
 Br         1.1980956829       -0.1244575407        0.3597373544
 H         -1.4355290715       -2.6773587547       -0.3128469421
 H         -0.5192604570       -1.4833532406       -1.0127903337
 H         -2.0225438846       -1.8444693289       -1.6222756273
 H         -1.5443502276       -0.7002313922        1.1041133928
 H         -3.1007320736       -1.1004780345        0.4265726320
 H         -3.1300401784        1.1376356067       -0.1354956308
 H         -2.2803820737        0.5743442392       -1.5433754815
 H         -0.9415769677        1.7133299277        0.9731769931
 H         -1.2812426676        2.6252610838       -0.4729684265
 H          1.0250832598        2.0632636489       -0.6813554537
 H          0.2491510262        0.8743480412       -1.7154255959
  17
        -20.74342277
 N         -1.5942024473       -1.7099336284        0.5942227927
 C         -2.0424648283       -0.7553700351       -0.4616229941
 C         -2.2305367044        0.6795864784        0.0507409640
 C         -1.0252023686        1.6159946478       -0.1409726115
 C          0.2172672212        1.2578115924        0.6606735811
 Br         1.2398294774       -0.1382824331       -0.1507045504
 H         -0.6916630958       -1.4295861183        1.0017736490
 H         -1.4795370672       -2.6636509467        0.2196437775
 H         -2.2790260278       -1.7645223763        1.3620159611
 H         -2.9857289020       -1.1360683328       -0.8782791922
 H         -1.3342071818       -0.7662694872       -1.2991413659
 H         -2.5004726471        0.6457417683        1.1124064298
 H         -3.1032307629        1.1271569215       -0.4452485755
 H         -1.3306560572        2.6415230972        0.1150649429
 H         -0.7607463234        1.6569059378       -1.2056123349
 H         -0.0314390869        0.9682427136        1.6831362529
 H          0.9091600950        2.1024064083        0.7271085219
  17
        -20.74239593
 N         -1.8993467479       -1.7037977893       -0.8496636482
 C         -1.9286905979       -0.8372931375        0.3646368966
 C         -2.1626565478        0.6398631973        0.0541396594
 C         -1.0308021573        1.3364582527       -0.7162045877
 C          0.2628456400        1.5055431571        0.0670839656
 Br         1.2655038961       -0.1138179082        0.2223233098
 H         -1.1212146848       -1.4586489564       -1.4779376358
 H         -2.7735274669       -1.6184126557       -1.3879437793
 H         -1.7892707693       -2.6985819401       -0.6021514853
 H         -0.9941645314       -0.9612651258        0.9235168937
 H         -2.7174553052       -1.2074437522        1.0339801140
 H         -2.3441761196        1.1893904504        0.9865275361
 H         -3.0976235295        0.7272881612       -0.5137450714
 H         -1.3804078221        2.3267843464       -1.0436444576
 H         -0.8210426368        0.7898616252       -1.6433326383
 H          0.0757367104        1.8846997574        1.0736673137
 H          0.9395853634        2.2121031763       -0.4215385837
  17
        -20.74229668
 N         -1.9062089681       -1.7050021292       -0.8519911104
 C         -1.9270870821       -0.8402254625        0.3637173762
 C         -2.1610423154        0.6376912208        0.0567371781
 C         -1.0315795180        1.3348365327       -0.7166939331
 C          0.2634872861        1.5062519466        0.0637107765
 Br         1.2664255913       -0.1125036925        0.2232285991
 H         -1.1332959464       -1.4579802864       -1.4859351167
 H         -2.7845892782       -1.6199252521       -1.3834545521
 H         -1.7929229150       -2.6999914680       -0.6067692562
 H         -0.9894584151       -0.9662391718        0.9168908647
 H         -2.7123783989       -1.2104048721        1.0371185548
 H         -2.3386160485        1.1857837200        0.9907224502
 H         -3.0981038445        0.7266924621       -0.5074369498
 H         -1.3829407648        2.3244926964       -1.0442682986
 H         -0.8231861908        0.7876393713       -1.6437588392
 H          0.0781383708        1.8887814383        1.0693471366
 H          0.9393582926        2.2111815409       -0.4284496959
  17
        -20.74210782
 N         -1.9933039855       -1.7274619074        0.6216400710
 C         -1.8794607996       -0.8342511264       -0.5681339441
 C         -2.1437581570        0.6369376445       -0.2533317824
 C         -1.0989400542        1.3139451846        0.6467227024
 C          0.2661392764        1.5079720600        0.0028657120
 Br         1.2850296526       -0.1052304526       -0.1027332782
 H         -1.8547253869       -2.7168227484        0.3666788575
 H         -2.9248032190       -1.6518504468        1.0550509297
 H         -1.2946760528       -1.4983971779        1.3425321926
 H         -2.5867537714       -1.1854422921       -1.3320349860
 H         -0.8870267975       -0.9508928361       -1.0180866664
 H         -3.1335129058        0.7150547101        0.2141815705
 H         -2.2252596233        1.2064802710       -1.1877953107
 H         -0.9810619298        0.7418260205        1.5746714225
 H         -1.4845501014        2.2939546118        0.9645925379
 H          0.8880191718        2.1989060788        0.5789042532
 H          0.1794142182        1.9189756474       -1.0048776808
  17
        -20.74200256
 N         -2.0006990649       -1.7287462199        0.6250896933
 C         -1.8785135675       -0.8376704637       -0.5654495226
 C         -2.1415790803        0.6345365767       -0.2542956319
 C         -1.0995694953        1.3111937598        0.6493527527
 C          0.2665755857        1.5086158101        0.0088511429
 Br         1.2860973203       -0.1035631614       -0.1053409488
 H         -1.8634744296       -2.7188878458        0.3724441679
 H         -2.9342770335       -1.6500394606        1.0534485318
 H         -1.3053263555       -1.5003109590        1.3493208844
 H         -2.5823288752       -1.1886211764       -1.3326668257
 H         -0.8838661401       -0.9570877748       -1.0097231107
 H         -3.1332423629        0.7149441324        0.2087652878
 H         -2.2180816395        1.2028085305       -1.1899464109
 H         -0.9829741031        0.7373324495        1.5763675859
 H         -1.4871090766        2.2900779196        0.9683147027
 H          0.8874595159        2.1963440185        0.5897795941
 H          0.1814563858        1.9253787495       -0.9966695138
  17
        -20.74152101
 N         -1.9702953179       -1.7173101477       -0.8669243033
 C         -1.9156776221       -0.8661080643        0.3573960390
 C         -2.1491806996        0.6176248012        0.0784181063
 C         -1.0383241494        1.3182738261       -0.7190860188
 C          0.2658662747        1.5109749776        0.0408395647
 Br         1.2768092009       -0.0996780152        0.2283201237
 H         -1.8544172592       -2.7161613700       -0.6390970961
 H         -1.2310698030       -1.4708936929       -1.5400424441
 H         -2.8756681287       -1.6175405194       -1.3481639621
 H         -0.9512759277       -1.0085353894        0.8578287651
 H         -2.6681392581       -1.2355039114        1.0676864846
 H         -2.2953671011        1.1545157106        1.0242284427
 H         -3.1022556958        0.7192007554       -0.4559907477
 H         -1.4038484330        2.3012469889       -1.0511614599
 H         -0.8381728909        0.7635566504       -1.6434214423
 H          0.0914136451        1.9161524980        1.0395584765
 H          0.9329261376        2.2069052903       -0.4755167576
  17
        -20.73921631
 N         -2.1699551466       -1.7443308940       -0.8965459620
 C         -1.8565834493       -0.9472541707        0.3253302326
 C         -2.1000445929        0.5516642966        0.1509595744
 C         -1.0609195718        1.2812852531       -0.7159347397
 C          0.2753927102        1.5246321398       -0.0301010687
 Br         1.3025626966       -0.0638237673        0.2398910509
 H         -3.1531712927       -1.6213939174       -1.1784751267
 H         -2.0211300744       -2.7524466446       -0.7399724656
 H         -1.5813626472       -1.4693511676       -1.6954645233
 H         -0.8163389367       -1.1272721061        0.6189470522
 H         -2.4668107980       -1.3336128503        1.1532416998
 H         -2.1448663854        1.0412012415        1.1319907459
 H         -3.1005312336        0.6862833471       -0.2792229562
 H         -1.4748965964        2.2490570931       -1.0351661678
 H         -0.8953678222        0.7220911191       -1.6443144787
 H          0.1420566861        1.9970442707        0.9452162216
 H          0.9154983635        2.1854906003       -0.6210452846
  17
        -20.73895694
 N         -1.6688709167       -2.0283348807       -0.4993964895
 C         -2.4580605048       -0.7782980975       -0.7053889173
 C         -1.9911929714        0.3873265824        0.1804890932
 C         -1.0556661540        1.3863747208       -0.5175859517
 C          0.2640925203        0.8024669182       -0.9872393107
 Br         1.2838064494        0.1106421465        0.4727363150
 H         -0.6616451070       -1.8738477388       -0.6446616634
 H         -1.9653081335       -2.7768287933       -1.1434906278
 H         -1.7885129820       -2.3868972124        0.4590831761
 H         -3.5146569363       -1.0094519950       -0.5097884634
 H         -2.4207808241       -0.4853251128       -1.7618715760
 H         -1.4957969224       -0.0185946252        1.0697746835
 H         -2.8652095149        0.9289785688        0.5679054072
 H         -0.8434815006        2.2223167291        0.1640955620
 H         -1.5831020090        1.8380819850       -1.3692018830
 H          0.8906620764        1.5553544721       -1.4729593868
 H          0.1169440162       -0.0026065518       -1.7083223641
  17
        -20.73886417
 N         -1.7715481374       -1.9520162441        0.4645905913
 C         -2.5667038539       -0.7002027621        0.2958795566
 C         -1.9039378423        0.3190067228       -0.6438767515
 C         -1.1174422415        1.4298005690        0.0690224306
 C          0.0692949472        0.9486355144        0.8834918426
 Br         1.3562875210        0.0580503819       -0.2121821590
 H         -2.2120262209       -2.5951560547        1.1394096716
 H         -0.8171029424       -1.7582674193        0.7975675907
 H         -1.6873392388       -2.4592099643       -0.4282824896
 H         -2.7518002222       -0.2426965016        1.2755567920
 H         -3.5604735659       -0.9796666424       -0.0815655944
 H         -2.6680151299        0.7796534039       -1.2852791314
 H         -1.2411166380       -0.2135736911       -1.3352545537
 H         -1.8019325278        1.9976803130        0.7143508631
 H         -0.7576527682        2.1545721591       -0.6751336754
 H         -0.2342897641        0.2623392658        1.6750246285
 H          0.5940565748        1.7784029564        1.3646016048
  17
        -20.73735315
 N         -2.7155920057       -2.1366548605        0.6423924667
 C         -2.9479300362       -0.9521320381       -0.2339996256
 C         -1.6787740742       -0.1525277827       -0.5291068063
 C         -1.1097726162        0.5851250049        0.6871751576
 C          0.1276967642        1.4069642907        0.3689116391
 Br         1.5739079852        0.2913007815       -0.1916738388
 H         -2.0231095632       -2.7765176700        0.2271591557
 H         -3.5826297895       -2.6757008990        0.7862867323
 H         -2.3705672349       -1.8629885390        1.5732920262
 H         -3.6991116906       -0.3006720898        0.2293782821
 H         -3.3991150082       -1.2991861488       -1.1735002567
 H         -1.8754802710        0.5754703997       -1.3261696877
 H         -0.9151742127       -0.8252130973       -0.9355237173
 H         -0.8644541514       -0.1385156358        1.4742468461
 H         -1.8872697012        1.2321553863        1.1157114395
 H          0.4805702828        1.9696730722        1.2369580552
 H         -0.0620959819        2.1253771250       -0.4310547823
  17
        -20.73725432
 N         -2.6292582335       -2.1502841615       -0.9419040694
 C         -2.9549554148       -0.9562542681       -0.1092817002
 C         -1.7251595657       -0.1547257930        0.3175544756
 C         -1.0118163534        0.5552523525       -0.8375576963
 C          0.1739925630        1.3928250475       -0.3898872020
 Br         1.5390701437        0.3031963513        0.3845431270
 H         -1.9869525782       -2.7854232587       -0.4465293396
 H         -2.1844803680       -1.8866556095       -1.8325420215
 H         -3.4759258289       -2.6909842519       -1.1738765788
 H         -3.5092506429       -1.2923483996        0.7775299452
 H         -3.6480297515       -0.3090069038       -0.6607924441
 H         -1.0186910948       -0.8207750409        0.8255897870
 H         -2.0111557692        0.5905077160        1.0704096197
 H         -1.7319853009        1.1863710974       -1.3758911666
 H         -0.6685853784       -0.1868246762       -1.5689017961
 H         -0.1172200781        2.1340284734        0.3570466732
 H          0.6333891200        1.9311453575       -1.2228512102
  17
        -20.73659538
 N         -3.1495682446       -2.3684112630       -0.3771788166
 C         -2.8224048738       -1.0163280109        0.1631768422
 C         -1.5167822963       -0.4560893871       -0.3934936830
 C         -1.1532180141        0.9257431856        0.1624403176
 C          0.1650546114        1.4596572349       -0.3688734117
 Br         1.6165957308        0.3360919000        0.1603947495
 H         -3.2458075741       -2.3467191273       -1.4025964185
 H         -4.0348001741       -2.7292114091        0.0088310703
 H         -2.4120695017       -3.0502999488       -0.1485414535
 H         -2.7683592733       -1.0693125482        1.2576107346
 H         -3.6479656284       -0.3288814545       -0.0592142411
 H         -1.5780523301       -0.4083587757       -1.4866546633
 H         -0.7029764268       -1.1593959226       -0.1838372387
 H         -1.1042861247        0.8746180804        1.2580392943
 H         -1.9628423517        1.6339151761       -0.0608871598
 H          0.3837858881        2.4623106092        0.0072692061
 H          0.1679265152        1.5104609994       -1.4594387769
  17
        -20.73589687
 N         -2.8969918521       -2.2692251314        0.1424104686
 C         -2.2771311952       -1.0061840832        0.6419616273
 C         -1.7311698428       -0.1322696899       -0.4830774614
 C         -1.1542569158        1.2132068462       -0.0182956490
 C          0.1153962486        1.0945077420        0.8058161045
 Br         1.5132704157        0.2716835250       -0.2032621572
 H         -3.6877214840       -2.0726765401       -0.4879279142
 H         -3.2550439497       -2.8502341997        0.9150559223
 H         -2.2162314142       -2.8370811439       -0.3821629370
 H         -1.4779543865       -1.2552088606        1.3497516438
 H         -3.0222486092       -0.4455258862        1.2198811302
 H         -2.5326591936        0.0401928925       -1.2121693363
 H         -0.9624189602       -0.6891608624       -1.0305312223
 H         -1.9196013829        1.7593221784        0.5498768790
 H         -0.9416198941        1.8413742740       -0.8948923110
 H         -0.0368360499        0.5000840033        1.7078254411
 H          0.4892791899        2.0717811147        1.1222158006
  17
        -20.73579088
 N         -2.9075659939       -2.2741501616        0.1433386375
 C         -2.2921039708       -1.0083119940        0.6414115261
 C         -1.7284001606       -0.1446771898       -0.4828616885
 C         -1.1543616559        1.2029550690       -0.0203750390
 C          0.1132969280        1.0876097572        0.8072022513
 Br         1.5181110323        0.2783976940       -0.2032773095
 H         -3.6851042502       -2.0812426738       -0.5042923658
 H         -3.2833460362       -2.8453042301        0.9149083996
 H         -2.2193090297       -2.8506462217       -0.3616739519
 H         -1.5038258470       -1.2529682081        1.3628100073
 H         -3.0441776314       -0.4413445996        1.2039815635
 H         -2.5196064379        0.0241307996       -1.2239420333
 H         -0.9537107750       -0.7075635471       -1.0155917815
 H         -1.9219945431        1.7496994405        0.5440915998
 H         -0.9397707988        1.8291033816       -0.8979494586
 H         -0.0379878969        0.4873714142        1.7054893360
 H          0.4806600677        2.0653778837        1.1296397634
