50
 energy: -83.614542227393 gnorm: 0.000300238508 xtb: 6.5.1 (fef0646)
N            2.02495403400055        1.19684430549410        1.59943900004269
C            3.16730322236904        1.22409538991439        0.69685151224397
C            4.10097411938147        2.42987004393369        0.91251734440083
C            5.25090549629976        2.39110488995844       -0.03165088606616
C            5.45085133592663        3.13471832958438       -1.15541523238654
C            6.63341806081791        2.80614253516724       -1.84142944249981
C            7.34408609621790        1.79860871158491       -1.24334275936341
C            8.57595317187231        1.21701622778402       -1.65968369363948
C            9.29530322876294        0.22356923227564       -1.04237653972903
C           10.47781349748633       -0.12989309638813       -1.71135591553770
C           11.40904491479968       -1.15544017844646       -1.15042011230015
C           10.66820112251989        0.60696753130629       -2.86743639263288
C           11.71834872435518        0.55199844892491       -3.85009391975828
C           12.54294988671238       -0.53987256803999       -4.06584927427521
C           13.55110034203943       -0.55736061940807       -5.03493511473987
C           13.80954373983237        0.50783048826604       -5.87898489224786
C           14.83901324745145        0.50993917232168       -6.88981208994904
C           15.36942519443675       -0.53513674065781       -7.61434744886244
C           14.92852785624910       -1.96172293444010       -7.55524695293678
C           16.37896143719616       -0.10391821999358       -8.50521026160436
C           16.60683656586955        1.23367915046096       -8.45449736697569
S           15.57790136529010        2.02368042946002       -7.33474755107449
C           12.98968372767348        1.65017992597081       -5.69187076008421
N           13.04047894297583        2.79049171605729       -6.37655691543835
S           11.90442757832180        3.78425194806862       -5.82682106949357
N           11.28731371791721        2.81984658771927       -4.69630692954978
C           11.95016745583968        1.66649003551861       -4.70021840417299
S            9.38388054253746        1.76331088656309       -3.09513872289940
S            6.53507012187701        1.24700835982675        0.19850296967071
Cl           0.28713414120706       -1.12130989273124        1.03738403726280
H            1.09468757202961       -0.06100311734679        1.29030604458027
H            1.45628404268535        2.03011066540054        1.48923824091577
H            2.32911170209202        1.14006467400478        2.56592326774259
H            2.78599902700641        1.23659500217838       -0.32643978122331
H            3.73102531889006        0.29971920851898        0.84004943639562
H            4.46578874947029        2.41534095001723        1.94382219386235
H            3.54285408925811        3.35676095764409        0.75545019821434
H            4.77166724797808        3.90334660971130       -1.47980010145792
H            6.96343490704206        3.28788385605632       -2.74428788746741
H            8.97525451742095       -0.23767255115414       -0.12366719243216
H           11.21931727789760       -1.27291081266149       -0.08573207055018
H           12.44675806350419       -0.85997090518151       -1.29118232009231
H           11.25384924285739       -2.12462544041760       -1.62570400213960
H           12.39911152869077       -1.43429871759334       -3.48447125371624
H           14.16426842659380       -1.44090169447334       -5.10237191835168
H           13.86570566787496       -2.03328114682992       -7.33413722802058
H           15.48041119835802       -2.50782493487740       -6.78900948498172
H           15.12250807429329       -2.44346567334791       -8.51138115318318
H           16.90910701303060       -0.77480922256049       -9.15835144653267
H           17.31407344483819        1.80744219684649       -9.01975975700825
