  35
        -45.89055945
 N         -5.3995098489        0.6330799164        1.5214343072
 C         -5.5231808872       -0.5716613627        0.6531506460
 C         -4.8444246261       -0.3858666295       -0.7019118348
 C         -3.3648722867       -0.1660496480       -0.5895618800
 C         -2.8264740482        1.1171883331       -0.6368689643
 C         -1.4722223166        1.3208346359       -0.5120578686
 C         -0.5881352814        0.2411429868       -0.3307115430
 C          0.8147263377        0.4898260876       -0.2144215497
 C          1.7845071144       -0.4629166676       -0.0545032335
 C          3.1877852928       -0.2132612730        0.0576304585
 C          3.7389926180        1.0830404053        0.0276238581
 C          5.0967015987        1.2753977238        0.1367642840
 C          5.9479842115        0.1923507558        0.2783781646
 C          5.4319144934       -1.0922869409        0.3112714469
 C          4.0761518915       -1.2965910424        0.2036790355
 C         -1.1442996682       -1.0503690298       -0.2760998499
 C         -2.5012139352       -1.2416655794       -0.4006102946
 H         -5.8548978703        0.4960571976        2.4372914311
 H         -5.8358848728        1.4553079906        1.0777906641
 H         -4.4095306433        0.8632563286        1.6962261741
 H         -6.5855243210       -0.8117299382        0.5189551726
 H         -5.0853262357       -1.4343315276        1.1691150433
 H         -5.2961121235        0.4643266437       -1.2239932596
 H         -5.0277198537       -1.2543429645       -1.3452556888
 H         -3.4852319282        1.9576813432       -0.7796560500
 H         -1.0738646917        2.3208308420       -0.5580024375
 H          1.1185070434        1.5199717659       -0.2653492900
 H          1.4820151770       -1.4939525260       -0.0129717357
 H          3.0940484790        1.9372436896       -0.0807337856
 H          5.5022795886        2.2747228620        0.1119464777
 H          7.0119689351        0.3491204960        0.3626543527
 H          6.0968198999       -1.9346992642        0.4210735694
 H          3.6810093504       -2.2986348239        0.2291860481
 H         -0.5036382659       -1.9035635506       -0.1357797720
 H         -2.9100019466       -2.2377375936       -0.3570476365
  35
        -45.89047088
 N         -5.2177202057        0.5659803815        1.7233176639
 C         -5.5960063254       -0.2865383157        0.5611678483
 C         -4.8654265288        0.1146128667       -0.7182150099
 C         -3.3768044293       -0.0376040352       -0.6138398027
 C         -2.5611862852        1.0602731526       -0.3513910093
 C         -1.1975905963        0.9203892651       -0.2349720899
 C         -0.5848692202       -0.3389839036       -0.3736050137
 C          0.8274230201       -0.5327850902       -0.2668711761
 C          1.7524887384        0.4490063351       -0.0342228476
 C          3.1651132967        0.2561674037        0.0722076446
 C          3.7758764482       -1.0080951559       -0.0443667412
 C          5.1402634957       -1.1454864953        0.0649101982
 C          5.9394895172       -0.0375595886        0.2921150477
 C          5.3643024393        1.2165352004        0.4104488410
 C          4.0013908780        1.3658650418        0.3032968077
 C         -1.4202842944       -1.4418047330       -0.6300080662
 C         -2.7825065067       -1.2896481477       -0.7445502859
 H         -4.2058989212        0.5062870599        1.9120414107
 H         -5.7132723971        0.2856174345        2.5840199546
 H         -5.4424378087        1.5566185496        1.5441048706
 H         -6.6821721250       -0.2341399702        0.4137660845
 H         -5.3773867411       -1.3347147436        0.7970582813
 H         -5.1047538636        1.1542698783       -0.9657143254
 H         -5.2252579019       -0.4779269570       -1.5674191114
 H         -3.0118312360        2.0330234448       -0.2442333437
 H         -0.5949641194        1.7893914167       -0.0368255565
 H          1.1773553750       -1.5424007048       -0.3864830245
 H          1.4031826892        1.4598473206        0.0769903591
 H          3.1718347248       -1.8807448218       -0.2205500570
 H          5.5919657066       -2.1208097179       -0.0267713902
 H          7.0089591659       -0.1510931295        0.3763696104
 H          5.9886537711        2.0784976289        0.5866477673
 H          3.5601394486        2.3444986675        0.3952170277
 H         -0.9785884129       -2.4184880393       -0.7407714813
 H         -3.4050358103       -2.1464046089       -0.9433829938
  35
        -45.88631720
 N         -6.8866227870        0.2466618736        0.8190493799
 C         -5.4028242180        0.1146869975        0.8960319523
 C         -4.7479551505        0.0526577801       -0.4793948234
 C         -3.2554581969       -0.0904979121       -0.4136046789
 C         -2.4340392256        1.0325451824       -0.3569814322
 C         -1.0666702086        0.9087188114       -0.2699768200
 C         -0.4561114451       -0.3587353180       -0.2296884981
 C          0.9592578026       -0.5380426130       -0.1407136759
 C          1.8895694401        0.4647091112       -0.0888988779
 C          3.3049214656        0.2850262914        0.0033184139
 C          4.1465715314        1.4139094142        0.0455849436
 C          5.5119944054        1.2773851478        0.1355462736
 C          6.0846838878        0.0177954168        0.1862809414
 C          5.2803260585       -1.1089310928        0.1460535770
 C          3.9131279437       -0.9845239988        0.0560731547
 C         -1.2972749440       -1.4856827318       -0.2780855150
 C         -2.6632088812       -1.3495697804       -0.3651317418
 H         -7.1571773875        1.1028697578        0.3124456480
 H         -7.3185409409        0.2888218875        1.7550842639
 H         -7.3050342290       -0.5523083377        0.3188228030
 H         -5.1436158905       -0.7835531676        1.4687297671
 H         -4.9881289842        0.9553636892        1.4647425575
 H         -5.0030977209        0.9511642468       -1.0512341550
 H         -5.1688094541       -0.7810692682       -1.0513048265
 H         -2.8845926839        2.0109346533       -0.3835110361
 H         -0.4598257588        1.7963325295       -0.2316463904
 H          1.3068431756       -1.5551818013       -0.1139793689
 H          1.5424229003        1.4819426965       -0.1197748275
 H          3.7071989781        2.3967520054        0.0061240060
 H          6.1402620923        2.1537247037        0.1667418750
 H          7.1561826695       -0.0856903423        0.2568536940
 H          5.7301978576       -2.0886021034        0.1855612868
 H          3.3051045192       -1.8716691089        0.0262474320
 H         -0.8571926338       -2.4688437245       -0.2464928846
 H         -3.2902606070       -2.2252152145       -0.3985401305
  35
        -45.88429005
 N         -6.2001295858       -1.2090621481        0.7460357373
 C         -5.6466243348       -0.5968943042       -0.4979445481
 C         -4.7827405784        0.6435268543       -0.2220263390
 C         -3.3047231819        0.3799350577       -0.1229803548
 C         -2.3965356201        1.3190550782       -0.6089513783
 C         -1.0390374414        1.1181640935       -0.5120546590
 C         -0.5206516204       -0.0435071521        0.0889382652
 C          0.8807261289       -0.2982202021        0.2103088102
 C          1.8824762026        0.5222469788       -0.2336774277
 C          3.2842265172        0.2675523525       -0.1141617435
 C          4.2055753972        1.2049278931       -0.6211610000
 C          5.5605777953        0.9914664613       -0.5236479171
 C          6.0435126637       -0.1575528887        0.0794367578
 C          5.1595792335       -1.0955034485        0.5864449894
 C          3.8019469355       -0.8926550057        0.4943987521
 C         -1.4441660768       -0.9807851469        0.5862415916
 C         -2.7987320730       -0.7670255440        0.4823101510
 H         -6.7420739007       -2.0635966246        0.5439554223
 H         -6.8330297419       -0.5524792098        1.2271544242
 H         -5.4614800836       -1.4619605062        1.4183931662
 H         -6.4880064151       -0.3380997136       -1.1544191297
 H         -5.0636634865       -1.3388365554       -1.0565894741
 H         -5.1204896760        1.1224370576        0.7031014452
 H         -4.9456693584        1.3898957160       -1.0086734362
 H         -2.7714057162        2.2194093503       -1.0672211053
 H         -0.3681831388        1.8643052566       -0.9005014670
 H          1.1547516457       -1.2190204112        0.6931054631
 H          1.6082529242        1.4420947665       -0.7183427385
 H          3.8362261570        2.1009280301       -1.0916651962
 H          6.2506395995        1.7208586123       -0.9179792340
 H          7.1070921674       -0.3220157485        0.1540016140
 H          5.5396077918       -1.9895720167        1.0554694683
 H          3.1312222774       -1.6332322686        0.8934947678
 H         -1.0765707686       -1.8787262163        1.0551166562
 H         -3.4807085261       -1.5026754385        0.8691165979
  35
        -45.88409569
 N         -5.8142610907       -1.5886197929        1.0493044945
 C         -5.4933184469       -0.9442024094       -0.2584133782
 C         -4.8503462208        0.4430583057       -0.1013273719
 C         -3.3478550112        0.4549218333       -0.1749748660
 C         -2.6895893122        1.4735174449       -0.8617507329
 C         -1.3164309158        1.5213681703       -0.9189164095
 C         -0.5277741698        0.5461859953       -0.2816753426
 C          0.8971810894        0.6283245786       -0.3596957234
 C          1.7796126879       -0.2539300796        0.2029740278
 C          3.2049104376       -0.1680934525        0.1312180229
 C          3.8760438286        0.8739715570       -0.5387088042
 C          5.2504078784        0.9159513485       -0.5807947522
 C          6.0001801139       -0.0705575102        0.0375462610
 C          5.3651722511       -1.1058139898        0.7029343525
 C          3.9917760258       -1.1578172992        0.7519433519
 C         -1.1999600203       -0.4741964183        0.4157100345
 C         -2.5743367174       -0.5094004234        0.4651423077
 H         -4.9829562869       -1.6868732488        1.6494901056
 H         -6.2183939565       -2.5296338316        0.9233613870
 H         -6.5022824464       -1.0283176736        1.5751986035
 H         -6.4216315983       -0.8716267010       -0.8405201658
 H         -4.8346196095       -1.5942293190       -0.8466816614
 H         -5.1625942373        0.8827848781        0.8518088614
 H         -5.2383617343        1.1209409637       -0.8709197808
 H         -3.2714760234        2.2363405344       -1.3522593514
 H         -0.8296759808        2.3176790469       -1.4573402897
 H          1.2939915245        1.4608303012       -0.9125315440
 H          1.3825435953       -1.0909232730        0.7488931357
 H          3.3111926041        1.6502754801       -1.0241665144
 H          5.7487149494        1.7210889088       -1.0976891381
 H          7.0776773454       -0.0327937481        0.0009646251
 H          5.9508481673       -1.8735122365        1.1839400789
 H          3.5036705959       -1.9660233647        1.2710374696
 H         -0.6353039552       -1.2377653421        0.9219043292
 H         -3.0635877857       -1.3000859278        1.0050779487
  35
        -45.88328048
 N         -6.9106320076        0.8596690611        0.2313505977
 C         -5.4207212583        0.9389506846        0.2539255540
 C         -4.7629829370       -0.3950291671       -0.0880677053
 C         -3.2574674078       -0.4062251653       -0.0963160638
 C         -2.4864706778        0.7151811611        0.2063277982
 C         -1.1115405067        0.6622453179        0.1881685124
 C         -0.4357212546       -0.5281359320       -0.1367025530
 C          0.9896556943       -0.6313138316       -0.1690998561
 C          1.8702461907        0.3812533883        0.1009896386
 C          3.2957941860        0.2774176602        0.0676943339
 C          4.0813207332        1.4076908334        0.3677188690
 C          5.4547788893        1.3430842224        0.3445716000
 C          6.0913965078        0.1561470141        0.0235012249
 C          5.3431018665       -0.9702732470       -0.2754010687
 C          3.9684957280       -0.9173986133       -0.2554634760
 C         -1.2212914731       -1.6545796645       -0.4397775199
 C         -2.5948119413       -1.5885976263       -0.4182596439
 H         -7.2556705665        0.1641929491        0.9097486005
 H         -7.2533769212        0.5784263616       -0.6994255340
 H         -7.3485566801        1.7648971241        0.4637251831
 H         -5.0915552045        1.2733574246        1.2445812433
 H         -5.0888649579        1.7092976945       -0.4518822334
 H         -5.1193783443       -0.7257497771       -1.0695474491
 H         -5.1137251005       -1.1562311226        0.6170101939
 H         -2.9728836634        1.6415937062        0.4593895260
 H         -0.5483051765        1.5473422090        0.4270598300
 H          1.3885843220       -1.5948700085       -0.4308140545
 H          1.4714997510        1.3451570201        0.3619666431
 H          3.5920523705        2.3342099388        0.6182399227
 H          6.0394526132        2.2193173508        0.5770542621
 H          7.1690069850        0.1089093185        0.0062290696
 H          5.8426266699       -1.8932920074       -0.5249472165
 H          3.4047546053       -1.8032236855       -0.4902585326
 H         -0.7324775316       -2.5812382826       -0.6921892291
 H         -3.1769924102       -2.4644165261       -0.6538359032
