24
 energy: -28.884408777196 gnorm: 0.000842316172 xtb: 6.5.1 (fef0646)
N            1.05511823469235       -1.68552002200244       -1.80634863803095
C            2.54416319055416       -1.63453336152712       -1.64983682947979
C            3.00557344505071       -0.21566185406076       -1.35315040804723
C            4.54063745889727       -0.14785797461647       -1.37849694845229
C            5.07974761372514       -0.46044925439953       -2.75043890423171
C            4.95230038940229        0.46906192711108       -3.77644813703171
C            5.42743194909470        0.18681103978855       -5.04462390178034
C            6.03786871248571       -1.02990814130540       -5.30212521031975
C            6.17318943555960       -1.96007533771589       -4.28591862118066
C            5.69264311838782       -1.67786313853379       -3.01806592716407
H            0.72793009658916       -2.64288532555568       -1.98492395767520
H            0.77107449584343       -1.08559772846824       -2.59172134022073
H            0.60278907531685       -1.33275442153171       -0.95265957413974
H            3.00566273271880       -1.98284995630608       -2.57599699145009
H            2.83006112635206       -2.30688931980304       -0.84022391264266
H            2.64427797598995        0.10604606261286       -0.37516695637828
H            2.61645754015826        0.46608607871951       -2.11206454262914
H            4.94856510136560       -0.84636963363630       -0.64736237206570
H            4.84481413745421        0.85827143412261       -1.08868271797776
H            4.49402860321728        1.42693061004245       -3.57592882507530
H            5.32943118317018        0.91993730930419       -5.83015448594843
H            6.41607314981391       -1.24739474589902       -6.28872317832361
H            6.65840786821998       -2.90531955833583       -4.47714557466161
H            5.81365336594069       -2.40297468800348       -2.22492204509317
