22
 energy: -30.702337278021 gnorm: 0.000240999048 xtb: 6.5.1 (fef0646)
N            1.09028660445972       -0.11017349011410       -0.54370191436394
C            2.54891280170320       -0.20352204267377       -0.57429531907909
C            3.02252783579487       -1.30754503858914        0.37517098850269
C            4.52360474099106       -1.33484234223587        0.43541103387364
C            5.20402642268576       -0.46502498458873        1.27845584681766
C            6.58654403766649       -0.45839422937456        1.31632516897154
C            7.30772472039808       -1.32209588518476        0.50895026240764
C            6.63890304250254       -2.19158662343323       -0.33469982191926
C            5.25526334205991       -2.19513775841345       -0.37182935647858
Cl           0.20354946871726        0.45223158369702        2.19554255089340
H            0.75545545155681        0.63675037528731       -1.14204914203066
H            0.62254026006953        0.18720708383399        0.91479546713940
H            0.66741899589235       -0.98354181960958       -0.84082717653836
H            2.94906866795968        0.75697162096021       -0.24206292378445
H            2.93309440451521       -0.40075549029926       -1.58550108384018
H            2.64302814305791       -2.26998089906613        0.02577844026656
H            2.60809046754426       -1.11095463503027        1.36414701604234
H            4.64243666210620        0.20507175045050        1.91310126559783
H            7.10371008063582        0.22039353367841        1.97856491799921
H            8.38726294560887       -1.31887499009833        0.53914524140019
H            7.19563089533055       -2.86953943135522       -0.96520191110832
H            4.73836000874447       -2.87907628784129       -1.03062955076980
