  28
        -40.33593048
 N         -2.6311045411        0.7491729047        1.5115841110
 C         -2.7483783138        1.8687713760        0.5337922693
 C         -2.0026334823        1.5767306354       -0.7666596232
 C         -0.5541884870        1.2549591846       -0.5475320827
 C         -0.1504683140       -0.0414159308       -0.3798230477
 C          1.2024572992       -0.3652638465       -0.1348186835
 C          1.6356612376       -1.6996924179        0.0387602580
 C          2.9484928356       -1.9775217054        0.2756049067
 C          3.8909576346       -0.9424919320        0.3515072494
 C          3.5067796979        0.3551328597        0.1905726947
 C          2.1529364828        0.6797056144       -0.0562397245
 C          1.7136028817        2.0125648911       -0.2230942080
 C          0.4000417218        2.2871340736       -0.4583968434
 Cl        -2.9236581919       -2.2533604807       -0.3076266903
 H         -3.2339492387        0.8807292914        2.3361838926
 H         -1.6603580485        0.6539972462        1.8402969756
 H         -2.8835440027       -0.1480682747        1.0635384759
 H         -2.3579099433        2.7875247615        0.9870713432
 H         -3.8068244636        2.0684154172        0.3258983771
 H         -2.0850739012        2.4239613531       -1.4576340076
 H         -2.4784949146        0.7347473506       -1.2810560850
 H         -0.8782492701       -0.8331278010       -0.4225547692
 H          0.9107389838       -2.4939820649       -0.0188012611
 H          3.2678685535       -2.9989208668        0.4061828577
 H          4.9261080819       -1.1782924480        0.5393021064
 H          4.2311582773        1.1498329113        0.2501859186
 H          2.4337592424        2.8106765225       -0.1588255208
 H          0.0732126059        3.3066108080       -0.5772200952
