  27
        -35.32224787
 N         -3.5272476849       -0.1086138674        1.2025962118
 C         -2.8075833097       -0.5703465137       -0.0270761110
 C         -3.5479864709       -0.1521613726       -1.2928801146
 C         -1.3713469691       -0.0998133154       -0.0246029781
 C         -1.0683663328        1.2601265115       -0.0238084611
 C          0.2412011517        1.7037763484       -0.0160444382
 C         -0.3292752808       -1.0205157599       -0.0130287486
 C          1.0151474171       -0.6071243519       -0.0041694843
 C          1.3084739806        0.7906582820       -0.0065767311
 C          2.6526534761        1.2044541048        0.0009279263
 C          3.6752773340        0.2747931935        0.0111753664
 C          3.3914073773       -1.0818378411        0.0144933616
 C          2.0817540851       -1.5239476635        0.0070276611
 H         -4.4840130064       -0.4888266368        1.2457265017
 H         -3.6001573587        0.9180559414        1.2219504543
 H         -3.0304532594       -0.4017788433        2.0564216005
 H         -2.7893742722       -1.6729718413        0.0078163290
 H         -4.5664240536       -0.5429377706       -1.3057812504
 H         -3.0382391679       -0.5089974551       -2.1891495112
 H         -3.6146550604        0.9333346325       -1.3619334255
 H         -1.8715065440        1.9776945439       -0.0291960274
 H          0.4542837154        2.7599559184       -0.0170607768
 H         -0.5504775259       -2.0735266682       -0.0098753557
 H          2.8794236014        2.2578574880       -0.0015478646
 H          4.7019216232        0.6071768697        0.0168002170
 H          4.1989096619       -1.7976656934        0.0233162901
 H          1.8681261882       -2.5799077255        0.0106037498
  27
        -35.32199872
 N         -3.2781917155       -0.7969134548       -1.2519618826
 C         -2.9025416355       -0.0291101646       -0.0221798996
 C         -3.3547102421       -0.7514099957        1.2423044510
 C         -1.4229639052        0.2782285427       -0.0041395764
 C         -0.9770049899        1.5998790846       -0.0027779948
 C          0.3721280911        1.9014932185        0.0097550205
 C         -0.4854724592       -0.7465479357        0.0045039662
 C          0.8954125876       -0.4786670557        0.0204294215
 C          1.3360376613        0.8798846514        0.0226357684
 C          2.7166131329        1.1480810047        0.0379995732
 C          3.6341745459        0.1146451659        0.0520942495
 C          3.2072333713       -1.2039957050        0.0510272739
 C          1.8579835680       -1.5040175779        0.0352383280
 H         -2.8307557279       -1.7238427283       -1.2578095421
 H         -2.9801258488       -0.3013559054       -2.1048146416
 H         -4.2967691507       -0.9429225063       -1.3098071946
 H         -3.4355085653        0.9356718923       -0.0722653533
 H         -4.4320924415       -0.9225679346        1.2392903423
 H         -3.1065025226       -0.1801712173        2.1381689724
 H         -2.8701640628       -1.7238247316        1.3267284122
 H         -1.6997694033        2.3990754659       -0.0127683347
 H          0.6962003468        2.9290909887        0.0101314422
 H         -0.8166575291       -1.7696286681       -0.0017917427
 H          3.0544103446        2.1713125438        0.0390299821
 H          4.6903677296        0.3356186243        0.0642398881
 H          3.9338319166       -2.0017493972        0.0627852907
 H          1.5330878476       -2.5311517136        0.0349016549
  27
        -35.32190403
 N         -3.2551717811       -0.9751544977       -1.1695198933
 C         -2.9018113304       -0.0319554275       -0.0606104601
 C         -3.3837039882       -0.5565685929        1.2871991231
 C         -1.4222567163        0.2757682917       -0.0499047878
 C         -0.9769849315        1.5970768567       -0.0899697538
 C          0.3717301029        1.9003220455       -0.0724976479
 C         -0.4844192875       -0.7467613005        0.0121245278
 C          0.8960921270       -0.4773088252        0.0315879072
 C          1.3360025424        0.8807588109       -0.0120174577
 C          2.7162110832        1.1505237676        0.0078731428
 C          3.6340708392        0.1190245135        0.0683752252
 C          3.2077834010       -1.1991475270        0.1106703413
 C          1.8588768391       -1.5006940285        0.0931044939
 H         -2.9200614670       -0.6226730587       -2.0777887440
 H         -4.2744939096       -1.1103872573       -1.2390700256
 H         -2.8310105380       -1.9006424492       -1.0172668601
 H         -3.4293757731        0.9145846217       -0.2684409626
 H         -4.4592627516       -0.7386750864        1.2822188511
 H         -3.1644718428        0.1479685333        2.0909922099
 H         -2.8930034896       -1.4983645595        1.5319967235
 H         -1.7001981926        2.3946826715       -0.1347866566
 H          0.6951412278        2.9276189390       -0.1048016724
 H         -0.8147548111       -1.7693936771        0.0471911949
 H          3.0534786675        2.1734087933       -0.0245226131
 H          4.6899891461        0.3412152671        0.0828177649
 H          3.9346412321       -1.9953779356        0.1574176649
 H          1.5345144786       -2.5274710377        0.1257875035
  27
        -35.31763449
 N         -3.7564113505        0.7776877707       -0.1475611195
 C         -2.8555564118       -0.3582116983        0.2429903102
 C         -3.1813434158       -1.5795557036       -0.6150890230
 C         -1.3896663815        0.0347519850        0.2000946344
 C         -1.0009370301        1.3405543988        0.4999156150
 C          0.3281849300        1.7221834852        0.5053079554
 C         -0.3934722818       -0.8983348309       -0.0746102868
 C          0.9696975541       -0.5500326233       -0.0807874851
 C          1.3416291346        0.7958221392        0.2143365030
 C          2.7042801211        1.1441033186        0.2105339382
 C          3.6710898386        0.1983790257       -0.0739419074
 C          3.3113669864       -1.1093555312       -0.3592962532
 C          1.9812027131       -1.4855734382       -0.3641516234
 H         -3.7093085854        1.5656540983        0.5139204488
 H         -4.7408210663        0.4755966989       -0.1839874027
 H         -3.5059701980        1.1285248319       -1.0827450953
 H         -3.0854571139       -0.6057770666        1.2934346035
 H         -2.8685255002       -1.4169764227       -1.6466285854
 H         -4.2541459390       -1.7767138919       -0.6270460001
 H         -2.6921918414       -2.4831696991       -0.2497504643
 H         -1.7515095828        2.0722218502        0.7423074807
 H          0.5980908016        2.7387986301        0.7390814867
 H         -0.6564195867       -1.9196103753       -0.2825960835
 H          2.9895319569        2.1589255119        0.4338200413
 H          4.7130251083        0.4793516008       -0.0728485553
 H          4.0756661197       -1.8389182638       -0.5786673991
 H          1.7090162253       -2.5040982534       -0.5858949537
  27
        -35.31745661
 N         -3.1454919185       -1.4745551079        0.6973451974
 C         -2.8457049435       -0.3814679029       -0.2870455364
 C         -3.8320864410        0.7675848371       -0.0846097016
 C         -1.3920165479        0.0515740834       -0.2278976546
 C         -1.0049293560        1.3617827378       -0.5176340936
 C          0.3230788482        1.7472569022       -0.4980314769
 C         -0.3969880095       -0.8758853486        0.0607336212
 C          0.9646539812       -0.5246803049        0.0882590704
 C          1.3357799888        0.8237495302       -0.1946933058
 C          2.6969106543        1.1767733077       -0.1664598037
 C          3.6620663252        0.2325286775        0.1287340325
 C          3.3025045660       -1.0782385032        0.4006089645
 C          1.9737787719       -1.4591702393        0.3820147087
 H         -2.8984384223       -1.1749897185        1.6509634166
 H         -2.6336393719       -2.3443197789        0.4913852902
 H         -4.1487496124       -1.7095183884        0.6971271526
 H         -3.0096795370       -0.8003446020       -1.2946343359
 H         -3.7801118584        1.5026257690       -0.8886415476
 H         -3.6356082872        1.2796338243        0.8575758307
 H         -4.8592513772        0.4022502670       -0.0486587565
 H         -1.7524494469        2.0939757649       -0.7702463843
 H          0.5934003839        2.7659003117       -0.7224196893
 H         -0.6617402436       -1.8967428716        0.2644642016
 H          2.9821328712        2.1938466527       -0.3792901599
 H          4.7028388931        0.5171998238        0.1465470431
 H          4.0658408479       -1.8063978027        0.6278535464
 H          1.7015232998       -2.4799127623        0.5931210963
