  27
        -35.42484716
 N         -3.3069221980        1.2252634413       -1.1277135070
 C         -3.6673306122        0.0255686685       -0.3171822460
 C         -2.7847797486       -0.1371976185        0.9184132760
 C         -1.3415859284       -0.3617700778        0.5783608173
 C         -0.4276373336        0.6786406511        0.6478268001
 C          0.9227834951        0.4913560898        0.3032242569
 C          1.8645053982        1.5342972779        0.3673296780
 C          3.1815875010        1.3138675747        0.0216055206
 C          3.5995730070        0.0581715444       -0.3954644838
 C          2.7043050075       -0.9883303945       -0.4714502755
 C          1.3532424735       -0.8008861275       -0.1277086879
 C          0.4090758363       -1.8398542866       -0.1934513744
 C         -0.9078506594       -1.6167646648        0.1513173746
 H         -3.4087395033        2.0826957292       -0.5726227369
 H         -3.9032878814        1.3128205770       -1.9588658700
 H         -2.3314077528        1.1684797488       -1.4430832926
 H         -3.5869591984       -0.8686121956       -0.9452827479
 H         -4.7222609903        0.0930497571       -0.0254383452
 H         -3.1375147469       -0.9713357437        1.5348789713
 H         -2.8725337871        0.7510664540        1.5513158540
 H         -0.7535011837        1.6493077600        0.9750494481
 H          1.5459359514        2.5102574733        0.6905144403
 H          3.8917237803        2.1227280292        0.0759928647
 H          4.6318832446       -0.1001662538       -0.6621710172
 H          3.0339166098       -1.9602717642       -0.7957059023
 H          0.7249260674       -2.8162261664       -0.5177768815
 H         -1.6189361009       -2.4229542048        0.0943718015
  27
        -35.42440847
 N         -3.5598010904       -0.0928394234        1.4873290923
 C         -3.4915703429        0.8014880228        0.2949155627
 C         -2.7777830893        0.1524370910       -0.8892543231
 C         -1.3405773326       -0.1670873142       -0.6033512598
 C         -0.3978648345        0.8477979756       -0.5474846066
 C          0.9518188506        0.5794775155       -0.2577184237
 C          1.9229066620        1.5955322130       -0.1993631603
 C          3.2378994354        1.2948871500        0.0892158204
 C          3.6246728044       -0.0162590984        0.3272969493
 C          2.7004001368       -1.0388654173        0.2780963110
 C          1.3508107060       -0.7704108240       -0.0138884920
 C          0.3785020902       -1.7833474403       -0.0755107372
 C         -0.9361950330       -1.4807137478       -0.3637631111
 H         -4.0654068906       -0.9575862899        1.2638305458
 H         -4.0398487400        0.3614131447        2.2729256302
 H         -2.6168964426       -0.3517577352        1.8002510378
 H         -2.9766879679        1.7283008025        0.5712835333
 H         -4.5081715277        1.0979128151        0.0099244390
 H         -2.8263894540        0.8024017953       -1.7698849048
 H         -3.3021279488       -0.7647253154       -1.1740460008
 H         -0.7022322550        1.8621937406       -0.7324105432
 H          1.6285161180        2.6143027092       -0.3834152333
 H          3.9708557333        2.0839457293        0.1301266851
 H          4.6555462614       -0.2369019907        0.5519486623
 H          3.0060723509       -2.0541370283        0.4631759594
 H          0.6713126595       -2.8030991073        0.1050965175
 H         -1.6662731443       -2.2700734248       -0.4114056412
  27
        -35.42340073
 N         -4.8233818016        0.7739206204       -0.4852585433
 C         -3.3752326128        0.4723358430       -0.6895077656
 C         -2.6752575367        0.0345343975        0.5922636677
 C         -1.2193255680       -0.2634927495        0.3856348958
 C         -0.2770803006        0.7500728796        0.4700428857
 C          1.0882807294        0.5011880001        0.2434180966
 C          2.0595137070        1.5152415104        0.3277736366
 C          3.3902463793        1.2344594393        0.0974282534
 C          3.7930541692       -0.0544596478       -0.2216017534
 C          2.8690326413       -1.0743323775       -0.3136556244
 C          1.5033678166       -0.8256153373       -0.0859564581
 C          0.5298239698       -1.8355454107       -0.1740239275
 C         -0.8007796734       -1.5524825601        0.0548862431
 H         -5.2733621264        1.0615253751       -1.3607874488
 H         -4.9427841754        1.5299248040        0.1969101363
 H         -5.3173792424       -0.0511566566       -0.1297856205
 H         -2.8718787924        1.3549558150       -1.0997301982
 H         -3.2673872323       -0.3077857591       -1.4514687706
 H         -3.1732262846       -0.8483184781        1.0044272278
 H         -2.7824156471        0.8094494666        1.3573340206
 H         -0.5948302774        1.7482047719        0.7121406058
 H          1.7527715561        2.5168134636        0.5750732734
 H          4.1229319122        2.0218646504        0.1655544526
 H          4.8362051987       -0.2596674801       -0.3991257788
 H          3.1871806024       -2.0721327726       -0.5618909792
 H          0.8338082261       -2.8368485353       -0.4254320053
 H         -1.5347402290       -2.3360842870       -0.0229536942
  27
        -35.42333719
 N         -4.8575752753        0.6606614506        0.4495527445
 C         -3.4198490710        0.3119040302        0.6560993659
 C         -2.6508638795        0.1716611177       -0.6529987591
 C         -1.2038963666       -0.1680428673       -0.4475091716
 C         -0.2549254244        0.8365050069       -0.3340604526
 C          1.1026374757        0.5400101078       -0.1178525174
 C          2.0816374665        1.5442399453       -0.0090979136
 C          3.4048729924        1.2157733349        0.2005875228
 C          3.7922642344       -0.1122313094        0.3086190620
 C          2.8601553261       -1.1239134616        0.2083093827
 C          1.5019418118       -0.8271680442       -0.0058510875
 C          0.5211435554       -1.8281649479       -0.1127172237
 C         -0.8010681169       -1.4980073385       -0.3264521633
 H         -5.3284325945       -0.0593688511       -0.1081753896
 H         -4.9454937460        1.5518648495       -0.0497430711
 H         -5.3550867631        0.7465237762        1.3423867448
 H         -3.3474232438       -0.6209444554        1.2262818135
 H         -2.9439800642        1.0757456511        1.2813000890
 H         -2.7271640414        1.0989238374       -1.2287043226
 H         -3.1181182456       -0.5952526635       -1.2780650974
 H         -0.5604605050        1.8641580485       -0.4141294807
 H          1.7868912780        2.5759843800       -0.0928035199
 H          4.1438865903        1.9961083678        0.2805252087
 H          4.8297052807       -0.3545986229        0.4721406104
 H          3.1662338274       -2.1523190299        0.2927827532
 H          0.8132624443       -2.8602880492       -0.0256107794
 H         -1.5405936946       -2.2764210068       -0.4031173938
  27
        -35.42169015
 N         -4.7709013397        1.1161453366       -0.0710360585
 C         -3.2777289175        1.0640531158       -0.0731955920
 C         -2.7398910529       -0.3619029122        0.0092918324
 C         -1.2409239857       -0.5017804774        0.0100122126
 C         -0.3836499515        0.5896211258       -0.0136167349
 C          1.0136331813        0.4287593626       -0.0030989669
 C          1.8939335152        1.5258589744       -0.0249916745
 C          3.2595806341        1.3316507061       -0.0106067998
 C          3.7883178217        0.0492636955        0.0254681799
 C          2.9561837423       -1.0504959553        0.0469134169
 C          1.5587000573       -0.8906915556        0.0331988085
 C          0.6754134035       -1.9828289605        0.0556211018
 C         -0.6894264809       -1.7836145954        0.0444368176
 H         -5.1466779516        0.6968472528        0.7859184777
 H         -5.1527142303        0.5971179824       -0.8686589569
 H         -5.1124435413        2.0816726636       -0.1279370638
 H         -2.8969829262        1.6530756250        0.7683760875
 H         -2.9013680338        1.5499708696       -0.9802237231
 H         -3.1419157315       -0.9427944700       -0.8264408591
 H         -3.1331416321       -0.8399141376        0.9117213233
 H         -0.7817177522        1.5869134217       -0.0400267148
 H          1.4896596933        2.5230028932       -0.0526205183
 H          3.9213350328        2.1821291644       -0.0270574666
 H          4.8574107081       -0.0879554024        0.0370418943
 H          3.3712949677       -2.0431286556        0.0751440040
 H          1.0759703326       -2.9813952859        0.0829338102
 H         -1.3510557628       -2.6327698117        0.0640876495
  27
        -35.42101964
 N         -5.0617078030        0.2377992659       -0.0583991371
 C         -3.6948220794       -0.3524207322       -0.1828001022
 C         -2.5909441283        0.6533129355        0.1321204284
 C         -1.1795248255        0.1416038331        0.0198207106
 C         -0.1333961842        1.0212693516        0.2580068359
 C          1.2096336358        0.6123483691        0.1790514554
 C          2.2785207135        1.4944277471        0.4204921958
 C          3.5838003688        1.0563766082        0.3353706212
 C          3.8640846982       -0.2630169834        0.0096233237
 C          2.8417336036       -1.1562812992       -0.2340219286
 C          1.4987336422       -0.7451560514       -0.1561599779
 C          0.4271080308       -1.6218061812       -0.3947735786
 C         -0.8779019830       -1.1824583201       -0.3063210365
 H         -5.1751661460        1.0269744280       -0.7030065669
 H         -5.2219600179        0.5837618414        0.8934366574
 H         -5.7890848810       -0.4531948649       -0.2715102767
 H         -3.5621693724       -0.7423127460       -1.1980652771
 H         -3.6135376153       -1.2147624488        0.4880474431
 H         -2.7394669120        1.0405365363        1.1448281940
 H         -2.6994137224        1.5186866203       -0.5288614439
 H         -0.3532409025        2.0428549511        0.5115438625
 H          2.0669827865        2.5187808519        0.6742265916
 H          4.3923069435        1.7437491599        0.5233283780
 H          4.8886352703       -0.5920030949       -0.0530651903
 H          3.0646351782       -2.1786456343       -0.4860676221
 H          0.6357846086       -2.6467451099       -0.6483574128
 H         -1.6756133885       -1.8791662474       -0.4931314409
  27
        -35.41974185
 N         -3.7384037605        1.8358962651        0.0124101944
 C         -3.4596038177        0.5135359868       -0.6259179288
 C         -2.8219461417       -0.4990961957        0.3399801942
 C         -1.3279606624       -0.6217088391        0.2200914830
 C         -0.5215807607        0.4983344815        0.0934999691
 C          0.8774500725        0.3952539957        0.0061535791
 C          1.7053127266        1.5243603299       -0.1283401337
 C          3.0752329995        1.3845519720       -0.2108541882
 C          3.6590698533        0.1266005178       -0.1624711485
 C          2.8786922764       -1.0031134534       -0.0309560256
 C          1.4786030870       -0.8991880084        0.0559842282
 C          0.6462014609       -2.0229917200        0.1927716492
 C         -0.7234753655       -1.8791652901        0.2749958312
 H         -2.8905323617        2.2519231826        0.4132096264
 H         -4.4172036692        1.7313226415        0.7749326668
 H         -4.1261768951        2.5042491074       -0.6634703011
 H         -2.8122121855        0.6488352419       -1.4999392062
 H         -4.4034342202        0.1201554687       -1.0242251512
 H         -3.2642558975       -1.4896429858        0.1854191880
 H         -3.0726129031       -0.2295109901        1.3703295414
 H         -0.9688054332        1.4726111616        0.0537486246
 H          1.2578359243        2.5025046709       -0.1666376501
 H          3.6971911320        2.2587087037       -0.3137486361
 H          4.7308166885        0.0319653665       -0.2279053976
 H          3.3367519259       -1.9763833531        0.0064383480
 H          1.0902951319       -3.0024350682        0.2353209603
 H         -1.3428688062       -2.7524950839        0.3868872495
  27
        -35.41956414
 N         -4.4686321804       -0.7133658903       -0.5815493482
 C         -3.6909140475       -0.1698953114        0.5735140663
 C         -2.6400406017        0.8719343059        0.1552959827
 C         -1.2408579265        0.3369025868        0.0177843808
 C         -0.1618224620        1.1180134245        0.4070006211
 C          1.1626268976        0.6640130530        0.2743247514
 C          2.2654708002        1.4415286123        0.6720889641
 C          3.5512247378        0.9632157003        0.5275552793
 C          3.7782178445       -0.2941050045       -0.0137509760
 C          2.7216527366       -1.0845002054       -0.4155786560
 C          1.3970593334       -0.6298235584       -0.2832228876
 C          0.2922951956       -1.4014759104       -0.6810560276
 C         -0.9915839760       -0.9199001338       -0.5329089083
 H         -3.8535672470       -1.1105795511       -1.3004201669
 H         -5.0181122319        0.0301154921       -1.0270169542
 H         -5.1199558543       -1.4486539509       -0.2831145781
 H         -3.2044311273       -0.9880049969        1.1168483132
 H         -4.4002687628        0.2675685727        1.2874774790
 H         -2.6242192353        1.6930998230        0.8807821266
 H         -2.9374950148        1.3303533189       -0.7925793175
 H         -0.3377594490        2.0954380413        0.8189274318
 H          2.0954257381        2.4174795769        1.0929104600
 H          4.3861074470        1.5704018922        0.8371706834
 H          4.7881203969       -0.6551916343       -0.1212916698
 H          2.9035129208       -2.0588726038       -0.8349983850
 H          0.4588277463       -2.3765663352       -1.1049482456
 H         -1.8202101664       -1.5294050620       -0.8422775268
