15
 energy: -19.390746333528 gnorm: 0.000241279253 xtb: 6.5.1 (fef0646)
N            2.32278769271062        0.09044391221030        0.10178517292960
C            0.83729283311932        0.04543785712293        0.02628535238604
C            0.20067189818687       -1.18159427904708        0.00800306064406
C           -1.18408067236224       -1.21551324760592       -0.05823742885298
C           -1.90625502200904       -0.03437972636814       -0.10489170738046
C           -1.25231820916844        1.18768250078808       -0.08594395161488
C            0.13085309321418        1.23495097123748       -0.01981394729507
H            2.70209753724066       -0.86225657498302        0.01273775297440
H            2.70651929465538        0.67735712956756       -0.65191756885100
H            2.62962835847788        0.48618448189882        1.00179134940355
H            0.76510497810565       -2.10132373512801        0.04399234670875
H           -1.69242852322534       -2.16602960383429       -0.07384647520209
H           -2.98275858873368       -0.06560234913563       -0.15693075606799
H           -1.81478352510062        2.10660332299180       -0.12319825135181
H            0.64398885488878        2.18430934028512       -0.00510494843013
